Circuit: * C:\Users\ycay\Documents\LTspiceXVII\lib\sym\AutoGenerated\Bipolar_UF3C065030K4S_DeadTime.asc

Instance "m:u4:m1:2": Length shorter than recommended for a level 3 MOSFET.
Instance "m:u4:m1:1": Length shorter than recommended for a level 3 MOSFET.
Instance "m:u3:m1:2": Length shorter than recommended for a level 3 MOSFET.
Instance "m:u3:m1:1": Length shorter than recommended for a level 3 MOSFET.
Instance "m:u2:m1:2": Length shorter than recommended for a level 3 MOSFET.
Instance "m:u2:m1:1": Length shorter than recommended for a level 3 MOSFET.
Instance "m:u1:m1:2": Length shorter than recommended for a level 3 MOSFET.
Instance "m:u1:m1:1": Length shorter than recommended for a level 3 MOSFET.
Direct Newton iteration for .op point succeeded.
Heightened Def Con from 5.56485e-006 to 5.56985e-006
Heightened Def Con from 1.50752e-005 to 1.50792e-005
Heightened Def Con from 1.5086e-005 to 1.509e-005
Heightened Def Con from 2.55932e-005 to 2.55982e-005
Heightened Def Con from 3.50475e-005 to 3.50515e-005
Heightened Def Con from 3.50574e-005 to 3.50614e-005
Heightened Def Con from 4.56208e-005 to 4.56258e-005
Heightened Def Con from 5.502e-005 to 5.5026e-005
Heightened Def Con from 5.50291e-005 to 5.50331e-005
Heightened Def Con from 6.56484e-005 to 6.56534e-005
Heightened Def Con from 7.54565e-005 to 7.54615e-005
Heightened Def Con from 8.56758e-005 to 8.56808e-005
Heightened Def Con from 9.54274e-005 to 9.54324e-005
Heightened Def Con from 0.000105702 to 0.000105707
Heightened Def Con from 0.000115401 to 0.000115406
Heightened Def Con from 0.000125731 to 0.000125736
Heightened Def Con from 0.000135374 to 0.000135379
Heightened Def Con from 0.000145759 to 0.000145764
Heightened Def Con from 0.000155346 to 0.000155351
Heightened Def Con from 0.000165783 to 0.000165788
Heightened Def Con from 0.000175319 to 0.000175324
Heightened Def Con from 0.000185811 to 0.000185816
Heightened Def Con from 0.000195291 to 0.000195296
Heightened Def Con from 0.000205841 to 0.000205846
Heightened Def Con from 0.000215264 to 0.000215269
Heightened Def Con from 0.000225869 to 0.000225874
Heightened Def Con from 0.000235237 to 0.000235242
Heightened Def Con from 0.000245896 to 0.000245901
Heightened Def Con from 0.000255209 to 0.000255214
Heightened Def Con from 0.000265922 to 0.000265927
Heightened Def Con from 0.000275181 to 0.000275186
Heightened Def Con from 0.000285951 to 0.000285956
Heightened Def Con from 0.000295156 to 0.000295161
Heightened Def Con from 0.000305978 to 0.000305983
Heightened Def Con from 0.000315127 to 0.000315132
Heightened Def Con from 0.000326004 to 0.000326009
Heightened Def Con from 0.0003351 to 0.000335105
Heightened Def Con from 0.000346033 to 0.000346038
Heightened Def Con from 0.000355074 to 0.000355077
Heightened Def Con from 0.00036606 to 0.000366065
Heightened Def Con from 0.000375046 to 0.000375051
Heightened Def Con from 0.000386088 to 0.000386093
Heightened Def Con from 0.000395018 to 0.000395023
Heightened Def Con from 0.000406115 to 0.00040612
Heightened Def Con from 0.000414991 to 0.000414996
Heightened Def Con from 0.000426141 to 0.000426146
Heightened Def Con from 0.000434964 to 0.000434991
Heightened Def Con from 0.000446169 to 0.000446174
Heightened Def Con from 0.000466196 to 0.000466201
Heightened Def Con from 0.000486223 to 0.000486228
Heightened Def Con from 0.000506251 to 0.000506256
Heightened Def Con from 0.000514392 to 0.000514408
Heightened Def Con from 0.000526278 to 0.000526283
Heightened Def Con from 0.000534364 to 0.000534368
Heightened Def Con from 0.000534371 to 0.000534375
Heightened Def Con from 0.000546308 to 0.000546313
Heightened Def Con from 0.000554338 to 0.000554344
Heightened Def Con from 0.000554346 to 0.00055435
Heightened Def Con from 0.000566332 to 0.000566337
Heightened Def Con from 0.000574309 to 0.000574315
Heightened Def Con from 0.000574317 to 0.000574321
Heightened Def Con from 0.000586359 to 0.000586364
Heightened Def Con from 0.000594283 to 0.00059429
Heightened Def Con from 0.000594291 to 0.000594295
Heightened Def Con from 0.000606389 to 0.000606394
Heightened Def Con from 0.000614256 to 0.000614262
Heightened Def Con from 0.000614265 to 0.000614269
Heightened Def Con from 0.000626413 to 0.000626418
Heightened Def Con from 0.00063423 to 0.000634236
Heightened Def Con from 0.000634238 to 0.000634242
Heightened Def Con from 0.000646441 to 0.000646446
Heightened Def Con from 0.000654203 to 0.000654209
Heightened Def Con from 0.000654211 to 0.000654215
Heightened Def Con from 0.000666468 to 0.000666473
Heightened Def Con from 0.000674176 to 0.000674182
Heightened Def Con from 0.000674185 to 0.000674189
Heightened Def Con from 0.000686494 to 0.000686499
Heightened Def Con from 0.000694149 to 0.000694155
Heightened Def Con from 0.000694158 to 0.000694162
Heightened Def Con from 0.000706519 to 0.000706524
Heightened Def Con from 0.000714122 to 0.000714128
Heightened Def Con from 0.000714131 to 0.000714135
Heightened Def Con from 0.000726548 to 0.000726553
Heightened Def Con from 0.000734097 to 0.000734103
Heightened Def Con from 0.000734106 to 0.00073411
Heightened Def Con from 0.000746574 to 0.000746579
Heightened Def Con from 0.000754069 to 0.000754075
Heightened Def Con from 0.000754078 to 0.000754082
Heightened Def Con from 0.000766604 to 0.000766609
Heightened Def Con from 0.000774042 to 0.000774048
Heightened Def Con from 0.000774051 to 0.000774055
Heightened Def Con from 0.000786629 to 0.000786634
Heightened Def Con from 0.000794016 to 0.000794022
Heightened Def Con from 0.000794025 to 0.000794029
Heightened Def Con from 0.000806652 to 0.000806657
Heightened Def Con from 0.000813989 to 0.000813995
Heightened Def Con from 0.000813998 to 0.000814002
Heightened Def Con from 0.000826682 to 0.000826687
Heightened Def Con from 0.000833965 to 0.000833971
Heightened Def Con from 0.000833973 to 0.000833977
Heightened Def Con from 0.000846706 to 0.000846711
Heightened Def Con from 0.000853936 to 0.000853941
Heightened Def Con from 0.000853945 to 0.000853949
Heightened Def Con from 0.000866734 to 0.000866739
Heightened Def Con from 0.000873909 to 0.000873914
Heightened Def Con from 0.000873918 to 0.000873922
Heightened Def Con from 0.000886762 to 0.000886767
Heightened Def Con from 0.000893883 to 0.000893888
Heightened Def Con from 0.000893892 to 0.000893896
Heightened Def Con from 0.000906788 to 0.000906793
Heightened Def Con from 0.000913857 to 0.000913862
Heightened Def Con from 0.000913866 to 0.00091387
Heightened Def Con from 0.000926813 to 0.000926818
Heightened Def Con from 0.00093383 to 0.000933835
Heightened Def Con from 0.00093384 to 0.000933844
Heightened Def Con from 0.000946838 to 0.000946843
Heightened Def Con from 0.000953804 to 0.000953809
Heightened Def Con from 0.000953813 to 0.000953817
Heightened Def Con from 0.000966866 to 0.000966871
Heightened Def Con from 0.000973778 to 0.000973783
Heightened Def Con from 0.000973787 to 0.000973791
Heightened Def Con from 0.000986893 to 0.000986898
Heightened Def Con from 0.000993752 to 0.000993757
Heightened Def Con from 0.000993761 to 0.000993765
Heightened Def Con from 0.00100692 to 0.00100692
Heightened Def Con from 0.00101373 to 0.00101373
Heightened Def Con from 0.00101373 to 0.00101374
Heightened Def Con from 0.00102694 to 0.00102695
Heightened Def Con from 0.0010337 to 0.0010337
Heightened Def Con from 0.00103371 to 0.00103371
Heightened Def Con from 0.00104697 to 0.00104698
Heightened Def Con from 0.00105367 to 0.00105368
Heightened Def Con from 0.00105368 to 0.00105369
Heightened Def Con from 0.001067 to 0.001067
Heightened Def Con from 0.00107365 to 0.00107365
Heightened Def Con from 0.00107366 to 0.00107366
Heightened Def Con from 0.00108702 to 0.00108703
Heightened Def Con from 0.00109362 to 0.00109363
Heightened Def Con from 0.00109363 to 0.00109363
Heightened Def Con from 0.00110705 to 0.00110705
Heightened Def Con from 0.0011136 to 0.0011136
Heightened Def Con from 0.00111361 to 0.00111361
Heightened Def Con from 0.00112707 to 0.00112707
Heightened Def Con from 0.00112707 to 0.00112708
Heightened Def Con from 0.00113357 to 0.00113358
Heightened Def Con from 0.00113358 to 0.00113358
Heightened Def Con from 0.0011471 to 0.00114711
Heightened Def Con from 0.00115354 to 0.00115355
Heightened Def Con from 0.00115355 to 0.00115356
Heightened Def Con from 0.00116713 to 0.00116713
Heightened Def Con from 0.00117352 to 0.00117352
Heightened Def Con from 0.00117353 to 0.00117353
Heightened Def Con from 0.00118715 to 0.00118716
Heightened Def Con from 0.00119349 to 0.0011935
Heightened Def Con from 0.0011935 to 0.00119351
Heightened Def Con from 0.00120718 to 0.00120718
Heightened Def Con from 0.00121347 to 0.00121347
Heightened Def Con from 0.00121348 to 0.00121348
Heightened Def Con from 0.0012272 to 0.00122721
Heightened Def Con from 0.00123344 to 0.00123345
Heightened Def Con from 0.00123345 to 0.00123346
Heightened Def Con from 0.00124723 to 0.00124724
Heightened Def Con from 0.00125342 to 0.00125342
Heightened Def Con from 0.00125343 to 0.00125343
Heightened Def Con from 0.00126725 to 0.00126726
Heightened Def Con from 0.00127339 to 0.0012734
Heightened Def Con from 0.0012734 to 0.00127341
Heightened Def Con from 0.00128728 to 0.00128728
Heightened Def Con from 0.00129337 to 0.00129337
Heightened Def Con from 0.00129338 to 0.00129338
Heightened Def Con from 0.00130731 to 0.00130731
Heightened Def Con from 0.00131334 to 0.00131335
Heightened Def Con from 0.00131335 to 0.00131336
Heightened Def Con from 0.00132733 to 0.00132733
Heightened Def Con from 0.00133332 to 0.00133332
Heightened Def Con from 0.00133333 to 0.00133333
Heightened Def Con from 0.00134735 to 0.00134736
Heightened Def Con from 0.00135329 to 0.0013533
Heightened Def Con from 0.0013533 to 0.0013533
Heightened Def Con from 0.00136738 to 0.00136739
Heightened Def Con from 0.00137327 to 0.00137327
Heightened Def Con from 0.00137328 to 0.00137328
Heightened Def Con from 0.00138741 to 0.00138741
Heightened Def Con from 0.00139324 to 0.00139325
Heightened Def Con from 0.00139325 to 0.00139325
Heightened Def Con from 0.00140743 to 0.00140744
Heightened Def Con from 0.00141322 to 0.00141322
Heightened Def Con from 0.00141323 to 0.00141323
Heightened Def Con from 0.00142745 to 0.00142746
Heightened Def Con from 0.00143319 to 0.0014332
Heightened Def Con from 0.0014332 to 0.00143321
Heightened Def Con from 0.00144748 to 0.00144748
Heightened Def Con from 0.00145317 to 0.00145317
Heightened Def Con from 0.00145318 to 0.00145318
Heightened Def Con from 0.0014675 to 0.00146751
Heightened Def Con from 0.00147314 to 0.00147315
Heightened Def Con from 0.00147315 to 0.00147316
Heightened Def Con from 0.00148753 to 0.00148753
Heightened Def Con from 0.00149312 to 0.00149312
Heightened Def Con from 0.00149313 to 0.00149313
Heightened Def Con from 0.00150755 to 0.00150756
Heightened Def Con from 0.00151309 to 0.0015131
Heightened Def Con from 0.0015131 to 0.00151311
Heightened Def Con from 0.00152758 to 0.00152758
Heightened Def Con from 0.00153307 to 0.00153307
Heightened Def Con from 0.00153308 to 0.00153308
Heightened Def Con from 0.00154704 to 0.00154705
Heightened Def Con from 0.0015476 to 0.00154761
Heightened Def Con from 0.00155305 to 0.00155305
Heightened Def Con from 0.00155306 to 0.00155306
Heightened Def Con from 0.00156762 to 0.00156763
Heightened Def Con from 0.00157302 to 0.00157302
Heightened Def Con from 0.00157303 to 0.00157303
Heightened Def Con from 0.00158765 to 0.00158766
Heightened Def Con from 0.001593 to 0.001593
Heightened Def Con from 0.00159301 to 0.00159301
Heightened Def Con from 0.00160768 to 0.00160768
Heightened Def Con from 0.00161297 to 0.00161298
Heightened Def Con from 0.00161298 to 0.00161299
Heightened Def Con from 0.0016277 to 0.0016277
Heightened Def Con from 0.00163295 to 0.00163295
Heightened Def Con from 0.00163296 to 0.00163296
Heightened Def Con from 0.00164773 to 0.00164773
Heightened Def Con from 0.00165292 to 0.00165293
Heightened Def Con from 0.00165293 to 0.00165294
Heightened Def Con from 0.00166775 to 0.00166775
Heightened Def Con from 0.0016729 to 0.0016729
Heightened Def Con from 0.00167291 to 0.00167291
Heightened Def Con from 0.00168777 to 0.00168778
Heightened Def Con from 0.00169288 to 0.00169288
Heightened Def Con from 0.00169289 to 0.00169289
Heightened Def Con from 0.00170779 to 0.0017078
Heightened Def Con from 0.00171285 to 0.00171286
Heightened Def Con from 0.00171286 to 0.00171287
Heightened Def Con from 0.00172782 to 0.00172782
Heightened Def Con from 0.00173283 to 0.00173283
Heightened Def Con from 0.00173284 to 0.00173284
Heightened Def Con from 0.00174784 to 0.00174785
Heightened Def Con from 0.00175281 to 0.00175281
Heightened Def Con from 0.00175282 to 0.00175282
Heightened Def Con from 0.00176786 to 0.00176787
Heightened Def Con from 0.00177278 to 0.00177279
Heightened Def Con from 0.00177279 to 0.0017728
Heightened Def Con from 0.00178789 to 0.00178789
Heightened Def Con from 0.00179276 to 0.00179276
Heightened Def Con from 0.00179277 to 0.00179277
Heightened Def Con from 0.00180791 to 0.00180792
Heightened Def Con from 0.00181274 to 0.00181274
Heightened Def Con from 0.00181275 to 0.00181275
Heightened Def Con from 0.00182793 to 0.00182794
Heightened Def Con from 0.00183271 to 0.00183272
Heightened Def Con from 0.00183272 to 0.00183273
Heightened Def Con from 0.00184796 to 0.00184796
Heightened Def Con from 0.00185269 to 0.00185269
Heightened Def Con from 0.0018527 to 0.0018527
Heightened Def Con from 0.00186798 to 0.00186799
Heightened Def Con from 0.00187267 to 0.00187267
Heightened Def Con from 0.00187268 to 0.00187268
Heightened Def Con from 0.001888 to 0.00188801
Heightened Def Con from 0.00189265 to 0.00189265
Heightened Def Con from 0.00189266 to 0.00189266
Heightened Def Con from 0.00190803 to 0.00190803
Heightened Def Con from 0.00191262 to 0.00191263
Heightened Def Con from 0.00191263 to 0.00191264
Heightened Def Con from 0.00192805 to 0.00192805
Heightened Def Con from 0.0019326 to 0.0019326
Heightened Def Con from 0.00193261 to 0.00193261
Heightened Def Con from 0.00194807 to 0.00194808
Heightened Def Con from 0.00195258 to 0.00195258
Heightened Def Con from 0.00195259 to 0.00195259
Heightened Def Con from 0.00196809 to 0.0019681
Heightened Def Con from 0.00197255 to 0.00197256
Heightened Def Con from 0.00197257 to 0.00197257
Heightened Def Con from 0.00198812 to 0.00198812
Heightened Def Con from 0.00199253 to 0.00199254
Heightened Def Con from 0.00199254 to 0.00199255
Heightened Def Con from 0.00200814 to 0.00200814
Heightened Def Con from 0.00201251 to 0.00201251
Heightened Def Con from 0.00201252 to 0.00201252
Heightened Def Con from 0.00202816 to 0.00202817
Heightened Def Con from 0.00203249 to 0.00203249
Heightened Def Con from 0.0020325 to 0.0020325
Heightened Def Con from 0.00204818 to 0.00204819
Heightened Def Con from 0.00205247 to 0.00205247
Heightened Def Con from 0.00205248 to 0.00205248
Heightened Def Con from 0.0020682 to 0.00206821
Heightened Def Con from 0.00207244 to 0.00207245
Heightened Def Con from 0.00207245 to 0.00207246
Heightened Def Con from 0.00208823 to 0.00208823
Heightened Def Con from 0.00209242 to 0.00209243
Heightened Def Con from 0.00209243 to 0.00209244
Heightened Def Con from 0.00210825 to 0.00210825
Heightened Def Con from 0.0021124 to 0.0021124
Heightened Def Con from 0.00211241 to 0.00211242
Heightened Def Con from 0.00212827 to 0.00212828
Heightened Def Con from 0.00213238 to 0.00213238
Heightened Def Con from 0.00213239 to 0.00213239
Heightened Def Con from 0.00214829 to 0.0021483
Heightened Def Con from 0.00215236 to 0.00215236
Heightened Def Con from 0.00215237 to 0.00215237
Heightened Def Con from 0.00216831 to 0.00216832
Heightened Def Con from 0.00217234 to 0.00217234
Heightened Def Con from 0.00217235 to 0.00217235
Heightened Def Con from 0.00218833 to 0.00218834
Heightened Def Con from 0.00219232 to 0.00219232
Heightened Def Con from 0.00219233 to 0.00219233
Heightened Def Con from 0.00220836 to 0.00220836
Heightened Def Con from 0.00221229 to 0.0022123
Heightened Def Con from 0.0022123 to 0.00221231
Heightened Def Con from 0.00222838 to 0.00222838
Heightened Def Con from 0.00223227 to 0.00223228
Heightened Def Con from 0.00223228 to 0.00223229
Heightened Def Con from 0.0022484 to 0.0022484
Heightened Def Con from 0.00225225 to 0.00225226
Heightened Def Con from 0.00225226 to 0.00225227
Heightened Def Con from 0.00226842 to 0.00226842
Heightened Def Con from 0.00227223 to 0.00227224
Heightened Def Con from 0.00227224 to 0.00227225
Heightened Def Con from 0.00228844 to 0.00228844
Heightened Def Con from 0.00229221 to 0.00229221
Heightened Def Con from 0.00229222 to 0.00229223
Heightened Def Con from 0.00230846 to 0.00230846
Heightened Def Con from 0.00231219 to 0.0023122
Heightened Def Con from 0.0023122 to 0.00231221
Heightened Def Con from 0.00232848 to 0.00232849
Heightened Def Con from 0.00233217 to 0.00233217
Heightened Def Con from 0.00233218 to 0.00233218
Heightened Def Con from 0.0023485 to 0.00234851
Heightened Def Con from 0.00235215 to 0.00235215
Heightened Def Con from 0.00235216 to 0.00235216
Heightened Def Con from 0.00236852 to 0.00236853
Heightened Def Con from 0.00237213 to 0.00237213
Heightened Def Con from 0.00237214 to 0.00237214
Heightened Def Con from 0.00238854 to 0.00238855
Heightened Def Con from 0.00239211 to 0.00239211
Heightened Def Con from 0.00239212 to 0.00239212
Heightened Def Con from 0.00240856 to 0.00240857
Heightened Def Con from 0.00241209 to 0.00241209
Heightened Def Con from 0.0024121 to 0.0024121
Heightened Def Con from 0.00242858 to 0.00242859
Heightened Def Con from 0.00243207 to 0.00243207
Heightened Def Con from 0.00243208 to 0.00243208
Heightened Def Con from 0.0024486 to 0.00244861
Heightened Def Con from 0.00245205 to 0.00245205
Heightened Def Con from 0.00245206 to 0.00245206
Heightened Def Con from 0.00246862 to 0.00246863
Heightened Def Con from 0.00247203 to 0.00247204
Heightened Def Con from 0.00247204 to 0.00247205
Heightened Def Con from 0.00248864 to 0.00248864
Heightened Def Con from 0.00249201 to 0.00249201
Heightened Def Con from 0.00249202 to 0.00249202
Heightened Def Con from 0.00250866 to 0.00250867
Heightened Def Con from 0.00251199 to 0.00251199
Heightened Def Con from 0.002512 to 0.00251201
Heightened Def Con from 0.00252868 to 0.00252868
Heightened Def Con from 0.00253197 to 0.00253198
Heightened Def Con from 0.00253198 to 0.00253199
Heightened Def Con from 0.0025487 to 0.00254871
Heightened Def Con from 0.00255195 to 0.00255196
Heightened Def Con from 0.00255196 to 0.00255197
Heightened Def Con from 0.00256872 to 0.00256872
Heightened Def Con from 0.00257193 to 0.00257194
Heightened Def Con from 0.00257195 to 0.00257195
Heightened Def Con from 0.00258874 to 0.00258874
Heightened Def Con from 0.00259191 to 0.00259192
Heightened Def Con from 0.00259192 to 0.00259193
Heightened Def Con from 0.00260876 to 0.00260876
Heightened Def Con from 0.0026119 to 0.0026119
Heightened Def Con from 0.00261191 to 0.00261191
Heightened Def Con from 0.00262878 to 0.00262878
Heightened Def Con from 0.00263188 to 0.00263188
Heightened Def Con from 0.00263189 to 0.00263189
Heightened Def Con from 0.00264879 to 0.0026488
Heightened Def Con from 0.00265186 to 0.00265186
Heightened Def Con from 0.00265187 to 0.00265187
Heightened Def Con from 0.00266834 to 0.00266834
Heightened Def Con from 0.00266881 to 0.00266881
Heightened Def Con from 0.00267184 to 0.00267184
Heightened Def Con from 0.00267185 to 0.00267185
Heightened Def Con from 0.00268836 to 0.00268836
Heightened Def Con from 0.00268883 to 0.00268883
Heightened Def Con from 0.00269182 to 0.00269183
Heightened Def Con from 0.00269183 to 0.00269184
Heightened Def Con from 0.00270838 to 0.00270838
Heightened Def Con from 0.00270885 to 0.00270885
Heightened Def Con from 0.0027118 to 0.00271181
Heightened Def Con from 0.00271181 to 0.00271182
Heightened Def Con from 0.00272839 to 0.0027284
Heightened Def Con from 0.00272887 to 0.00272887
Heightened Def Con from 0.00273178 to 0.00273179
Heightened Def Con from 0.0027318 to 0.0027318
Heightened Def Con from 0.00274841 to 0.00274841
Heightened Def Con from 0.00274888 to 0.00274889
Heightened Def Con from 0.00275177 to 0.00275177
Heightened Def Con from 0.00275178 to 0.00275178
Heightened Def Con from 0.00276843 to 0.00276843
Heightened Def Con from 0.0027689 to 0.00276891
Heightened Def Con from 0.00277175 to 0.00277175
Heightened Def Con from 0.00277176 to 0.00277176
Heightened Def Con from 0.00278845 to 0.00278845
Heightened Def Con from 0.00278892 to 0.00278892
Heightened Def Con from 0.00279173 to 0.00279174
Heightened Def Con from 0.00279174 to 0.00279175
Heightened Def Con from 0.00280847 to 0.00280847
Heightened Def Con from 0.00280894 to 0.00280894
Heightened Def Con from 0.00281171 to 0.00281172
Heightened Def Con from 0.00281173 to 0.00281173
Heightened Def Con from 0.00281217 to 0.00281217
Heightened Def Con from 0.00282848 to 0.00282848
Heightened Def Con from 0.00282895 to 0.00282896
Heightened Def Con from 0.0028317 to 0.0028317
Heightened Def Con from 0.00283171 to 0.00283171
Heightened Def Con from 0.0028485 to 0.0028485
Heightened Def Con from 0.00284897 to 0.00284898
Heightened Def Con from 0.00285168 to 0.00285168
Heightened Def Con from 0.00285169 to 0.00285169
Heightened Def Con from 0.00286852 to 0.00286852
Heightened Def Con from 0.00286899 to 0.00286899
Heightened Def Con from 0.00287166 to 0.00287167
Heightened Def Con from 0.00287167 to 0.00287168
Heightened Def Con from 0.00288853 to 0.00288854
Heightened Def Con from 0.002889 to 0.00288901
Heightened Def Con from 0.00289165 to 0.00289165
Heightened Def Con from 0.00289166 to 0.00289166
Heightened Def Con from 0.00290855 to 0.00290855
Heightened Def Con from 0.00290902 to 0.00290903
Heightened Def Con from 0.00291163 to 0.00291163
Heightened Def Con from 0.00291164 to 0.00291164
Heightened Def Con from 0.00292857 to 0.00292857
Heightened Def Con from 0.00292904 to 0.00292904
Heightened Def Con from 0.00293161 to 0.00293161
Heightened Def Con from 0.00293162 to 0.00293163
Heightened Def Con from 0.00294858 to 0.00294859
Heightened Def Con from 0.00294905 to 0.00294906
Heightened Def Con from 0.0029516 to 0.0029516
Heightened Def Con from 0.00295161 to 0.00295161
Heightened Def Con from 0.0029686 to 0.0029686
Heightened Def Con from 0.00296907 to 0.00296908
Heightened Def Con from 0.00297158 to 0.00297158
Heightened Def Con from 0.00297159 to 0.00297159
Heightened Def Con from 0.00298862 to 0.00298862
Heightened Def Con from 0.00298909 to 0.00298909
Heightened Def Con from 0.00299156 to 0.00299157
Heightened Def Con from 0.00299157 to 0.00299158
Heightened Def Con from 0.00300863 to 0.00300864
Heightened Def Con from 0.00300911 to 0.00300911
Heightened Def Con from 0.00301155 to 0.00301155
Heightened Def Con from 0.00301156 to 0.00301156
Heightened Def Con from 0.00302865 to 0.00302865
Heightened Def Con from 0.00302912 to 0.00302913
Heightened Def Con from 0.00303153 to 0.00303153
Heightened Def Con from 0.00303154 to 0.00303155
Heightened Def Con from 0.00304867 to 0.00304867
Heightened Def Con from 0.00304914 to 0.00304914
Heightened Def Con from 0.00305152 to 0.00305152
Heightened Def Con from 0.00305153 to 0.00305153
Heightened Def Con from 0.00306868 to 0.00306868
Heightened Def Con from 0.00306915 to 0.00306916
Heightened Def Con from 0.0030715 to 0.0030715
Heightened Def Con from 0.00307151 to 0.00307151
Heightened Def Con from 0.0030887 to 0.0030887
Heightened Def Con from 0.00308917 to 0.00308917
Heightened Def Con from 0.00309148 to 0.00309149
Heightened Def Con from 0.00309149 to 0.0030915
Heightened Def Con from 0.00310871 to 0.00310871
Heightened Def Con from 0.00310918 to 0.00310919
Heightened Def Con from 0.00311147 to 0.00311147
Heightened Def Con from 0.00311148 to 0.00311148
Heightened Def Con from 0.00312873 to 0.00312873
Heightened Def Con from 0.0031292 to 0.0031292
Heightened Def Con from 0.00313145 to 0.00313146
Heightened Def Con from 0.00313146 to 0.00313147
Heightened Def Con from 0.00314874 to 0.00314874
Heightened Def Con from 0.00314922 to 0.00314922
Heightened Def Con from 0.00315144 to 0.00315144
Heightened Def Con from 0.00315145 to 0.00315145
Heightened Def Con from 0.00316876 to 0.00316876
Heightened Def Con from 0.00316923 to 0.00316923
Heightened Def Con from 0.00317142 to 0.00317143
Heightened Def Con from 0.00317143 to 0.00317144
Heightened Def Con from 0.00318877 to 0.00318877
Heightened Def Con from 0.00318924 to 0.00318925
Heightened Def Con from 0.00319141 to 0.00319141
Heightened Def Con from 0.00319142 to 0.00319142
Heightened Def Con from 0.00320879 to 0.00320879
Heightened Def Con from 0.00320926 to 0.00320926
Heightened Def Con from 0.00321139 to 0.0032114
Heightened Def Con from 0.0032114 to 0.00321141
Heightened Def Con from 0.0032288 to 0.0032288
Heightened Def Con from 0.00322927 to 0.00322928
Heightened Def Con from 0.00323138 to 0.00323138
Heightened Def Con from 0.00323139 to 0.00323139
Heightened Def Con from 0.00324882 to 0.00324882
Heightened Def Con from 0.00324929 to 0.00324929
Heightened Def Con from 0.00325136 to 0.00325137
Heightened Def Con from 0.00325137 to 0.00325138
Heightened Def Con from 0.00326883 to 0.00326883
Heightened Def Con from 0.0032693 to 0.00326931
Heightened Def Con from 0.00327135 to 0.00327135
Heightened Def Con from 0.00327136 to 0.00327137
Heightened Def Con from 0.00328884 to 0.00328885
Heightened Def Con from 0.00328932 to 0.00328932
Heightened Def Con from 0.00329134 to 0.00329134
Heightened Def Con from 0.00329135 to 0.00329135
Heightened Def Con from 0.00330886 to 0.00330886
Heightened Def Con from 0.00330933 to 0.00330934
Heightened Def Con from 0.00331132 to 0.00331133
Heightened Def Con from 0.00331133 to 0.00331134
Heightened Def Con from 0.00332887 to 0.00332887
Heightened Def Con from 0.00332934 to 0.00332935
Heightened Def Con from 0.00333131 to 0.00333131
Heightened Def Con from 0.00333132 to 0.00333132
Heightened Def Con from 0.00334889 to 0.00334889
Heightened Def Con from 0.00334936 to 0.00334936
Heightened Def Con from 0.00335129 to 0.0033513
Heightened Def Con from 0.00335131 to 0.00335131
Heightened Def Con from 0.0033689 to 0.0033689
Heightened Def Con from 0.00336937 to 0.00336938
Heightened Def Con from 0.00337128 to 0.00337129
Heightened Def Con from 0.00337129 to 0.0033713
Heightened Def Con from 0.00338891 to 0.00338892
Heightened Def Con from 0.00338939 to 0.00338939
Heightened Def Con from 0.00339127 to 0.00339127
Heightened Def Con from 0.00339128 to 0.00339128
Heightened Def Con from 0.00340893 to 0.00340893
Heightened Def Con from 0.0034094 to 0.0034094
Heightened Def Con from 0.00341125 to 0.00341126
Heightened Def Con from 0.00341127 to 0.00341127
Heightened Def Con from 0.00342894 to 0.00342894
Heightened Def Con from 0.00342941 to 0.00342942
Heightened Def Con from 0.00343124 to 0.00343125
Heightened Def Con from 0.00343125 to 0.00343126
Heightened Def Con from 0.00344895 to 0.00344896
Heightened Def Con from 0.00344942 to 0.00344943
Heightened Def Con from 0.00345123 to 0.00345123
Heightened Def Con from 0.00345124 to 0.00345124
Heightened Def Con from 0.00346897 to 0.00346897
Heightened Def Con from 0.00346944 to 0.00346944
Heightened Def Con from 0.00347122 to 0.00347122
Heightened Def Con from 0.00347123 to 0.00347123
Heightened Def Con from 0.00348898 to 0.00348898
Heightened Def Con from 0.00348945 to 0.00348946
Heightened Def Con from 0.0034912 to 0.00349121
Heightened Def Con from 0.00349121 to 0.00349122
Heightened Def Con from 0.00350899 to 0.00350899
Heightened Def Con from 0.00350946 to 0.00350947
Heightened Def Con from 0.00351119 to 0.00351119
Heightened Def Con from 0.0035112 to 0.0035112
Heightened Def Con from 0.003529 to 0.00352901
Heightened Def Con from 0.00352947 to 0.00352948
Heightened Def Con from 0.00353118 to 0.00353118
Heightened Def Con from 0.00353119 to 0.0035312
Heightened Def Con from 0.00354902 to 0.00354902
Heightened Def Con from 0.00354949 to 0.00354949
Heightened Def Con from 0.00355117 to 0.00355117
Heightened Def Con from 0.00355118 to 0.00355118
Heightened Def Con from 0.00356903 to 0.00356903
Heightened Def Con from 0.0035695 to 0.0035695
Heightened Def Con from 0.00357115 to 0.00357116
Heightened Def Con from 0.00357117 to 0.00357117
Heightened Def Con from 0.00358904 to 0.00358904
Heightened Def Con from 0.00358951 to 0.00358952
Heightened Def Con from 0.00359114 to 0.00359115
Heightened Def Con from 0.00359115 to 0.00359116
Heightened Def Con from 0.00360905 to 0.00360905
Heightened Def Con from 0.00360952 to 0.00360953
Heightened Def Con from 0.00361113 to 0.00361113
Heightened Def Con from 0.00361114 to 0.00361115
Heightened Def Con from 0.00362906 to 0.00362906
Heightened Def Con from 0.00362953 to 0.00362954
Heightened Def Con from 0.00363112 to 0.00363112
Heightened Def Con from 0.00363113 to 0.00363113
Heightened Def Con from 0.00364907 to 0.00364908
Heightened Def Con from 0.00364954 to 0.00364955
Heightened Def Con from 0.00365111 to 0.00365111
Heightened Def Con from 0.00365112 to 0.00365112
Heightened Def Con from 0.00366909 to 0.00366909
Heightened Def Con from 0.00366956 to 0.00366956
Heightened Def Con from 0.0036711 to 0.0036711
Heightened Def Con from 0.00367111 to 0.00367111
Heightened Def Con from 0.0036891 to 0.0036891
Heightened Def Con from 0.00368957 to 0.00368957
Heightened Def Con from 0.00369109 to 0.00369109
Heightened Def Con from 0.0036911 to 0.0036911
Heightened Def Con from 0.00370911 to 0.00370911
Heightened Def Con from 0.00370958 to 0.00370958
Heightened Def Con from 0.00371107 to 0.00371108
Heightened Def Con from 0.00371109 to 0.00371109
Heightened Def Con from 0.00372912 to 0.00372912
Heightened Def Con from 0.00372959 to 0.00372959
Heightened Def Con from 0.00373106 to 0.00373107
Heightened Def Con from 0.00373108 to 0.00373108
Heightened Def Con from 0.00374913 to 0.00374913
Heightened Def Con from 0.0037496 to 0.0037496
Heightened Def Con from 0.00375105 to 0.00375106
Heightened Def Con from 0.00375106 to 0.00375107
Heightened Def Con from 0.00376914 to 0.00376914
Heightened Def Con from 0.00376914 to 0.00376914
Heightened Def Con from 0.00376961 to 0.00376962
Heightened Def Con from 0.00377104 to 0.00377105
Heightened Def Con from 0.00377105 to 0.00377106
Heightened Def Con from 0.00378962 to 0.00378963
Heightened Def Con from 0.00379103 to 0.00379104
Heightened Def Con from 0.00379104 to 0.00379105
Heightened Def Con from 0.00380963 to 0.00380964
Heightened Def Con from 0.00381102 to 0.00381103
Heightened Def Con from 0.00381103 to 0.00381104
Heightened Def Con from 0.00382964 to 0.00382965
Heightened Def Con from 0.00383101 to 0.00383102
Heightened Def Con from 0.00383102 to 0.00383103
Heightened Def Con from 0.00384965 to 0.00384966
Heightened Def Con from 0.003851 to 0.00385101
Heightened Def Con from 0.00385101 to 0.00385102
Heightened Def Con from 0.00386966 to 0.00386967
Heightened Def Con from 0.00387099 to 0.003871
Heightened Def Con from 0.00387101 to 0.00387101
Heightened Def Con from 0.00388967 to 0.00388968
Heightened Def Con from 0.00389098 to 0.00389099
Heightened Def Con from 0.003891 to 0.003891
Heightened Def Con from 0.00390968 to 0.00390968
Heightened Def Con from 0.00391097 to 0.00391098
Heightened Def Con from 0.00391099 to 0.00391099
Heightened Def Con from 0.00392969 to 0.00392969
Heightened Def Con from 0.00393097 to 0.00393097
Heightened Def Con from 0.00393098 to 0.00393098
Heightened Def Con from 0.0039497 to 0.0039497
Heightened Def Con from 0.00395096 to 0.00395096
Heightened Def Con from 0.00395097 to 0.00395097
Heightened Def Con from 0.00396971 to 0.00396971
Heightened Def Con from 0.00397095 to 0.00397095
Heightened Def Con from 0.00397096 to 0.00397096
Heightened Def Con from 0.00398971 to 0.00398972
Heightened Def Con from 0.00399094 to 0.00399094
Heightened Def Con from 0.00399095 to 0.00399095
Heightened Def Con from 0.00400972 to 0.00400973
Heightened Def Con from 0.00401093 to 0.00401093
Heightened Def Con from 0.00401094 to 0.00401094
Heightened Def Con from 0.00402973 to 0.00402974
Heightened Def Con from 0.00403092 to 0.00403093
Heightened Def Con from 0.00403093 to 0.00403094
Heightened Def Con from 0.00404974 to 0.00404974
Heightened Def Con from 0.00405091 to 0.00405092
Heightened Def Con from 0.00405093 to 0.00405093
Heightened Def Con from 0.00406975 to 0.00406975
Heightened Def Con from 0.00407091 to 0.00407091
Heightened Def Con from 0.00407092 to 0.00407092
Heightened Def Con from 0.00408976 to 0.00408976
Heightened Def Con from 0.0040909 to 0.0040909
Heightened Def Con from 0.00409091 to 0.00409091
Heightened Def Con from 0.00410976 to 0.00410977
Heightened Def Con from 0.00411089 to 0.00411089
Heightened Def Con from 0.0041109 to 0.00411091
Heightened Def Con from 0.00412977 to 0.00412978
Heightened Def Con from 0.00413088 to 0.00413089
Heightened Def Con from 0.00413089 to 0.0041309
Heightened Def Con from 0.00414978 to 0.00414978
Heightened Def Con from 0.00415088 to 0.00415088
Heightened Def Con from 0.00415089 to 0.00415089
Heightened Def Con from 0.00416979 to 0.00416979
Heightened Def Con from 0.00417087 to 0.00417087
Heightened Def Con from 0.00417088 to 0.00417088
Heightened Def Con from 0.00418979 to 0.0041898
Heightened Def Con from 0.00419086 to 0.00419087
Heightened Def Con from 0.00419087 to 0.00419088
Heightened Def Con from 0.0042098 to 0.0042098
Heightened Def Con from 0.00421085 to 0.00421086
Heightened Def Con from 0.00421087 to 0.00421087
Heightened Def Con from 0.00422981 to 0.00422981
Heightened Def Con from 0.00423085 to 0.00423085
Heightened Def Con from 0.00423086 to 0.00423086
Heightened Def Con from 0.00424981 to 0.00424982
Heightened Def Con from 0.00425084 to 0.00425084
Heightened Def Con from 0.00425085 to 0.00425086
Heightened Def Con from 0.00426982 to 0.00426982
Heightened Def Con from 0.00427084 to 0.00427084
Heightened Def Con from 0.00427085 to 0.00427085
Heightened Def Con from 0.00428927 to 0.00428927
Heightened Def Con from 0.00428983 to 0.00428983
Heightened Def Con from 0.00429083 to 0.00429083
Heightened Def Con from 0.00429084 to 0.00429084
Heightened Def Con from 0.00430983 to 0.00430984
Heightened Def Con from 0.00431082 to 0.00431083
Heightened Def Con from 0.00431083 to 0.00431084
Heightened Def Con from 0.00432984 to 0.00432984
Heightened Def Con from 0.00433082 to 0.00433082
Heightened Def Con from 0.00433083 to 0.00433083
Heightened Def Con from 0.00434984 to 0.00434985
Heightened Def Con from 0.00435081 to 0.00435081
Heightened Def Con from 0.00435082 to 0.00435083
Heightened Def Con from 0.00436985 to 0.00436985
Heightened Def Con from 0.00437081 to 0.00437081
Heightened Def Con from 0.00437082 to 0.00437082
Heightened Def Con from 0.00438985 to 0.00438986
Heightened Def Con from 0.0043908 to 0.0043908
Heightened Def Con from 0.00439081 to 0.00439082
Heightened Def Con from 0.00440986 to 0.00440986
Heightened Def Con from 0.0044108 to 0.0044108
Heightened Def Con from 0.00441081 to 0.00441081
Heightened Def Con from 0.00442986 to 0.00442987
Heightened Def Con from 0.00443079 to 0.00443079
Heightened Def Con from 0.0044308 to 0.0044308
Heightened Def Con from 0.00444987 to 0.00444987
Heightened Def Con from 0.00445079 to 0.00445079
Heightened Def Con from 0.0044508 to 0.0044508
Heightened Def Con from 0.00446987 to 0.00446988
Heightened Def Con from 0.00447078 to 0.00447078
Heightened Def Con from 0.00447079 to 0.0044708
Heightened Def Con from 0.00448988 to 0.00448988
Heightened Def Con from 0.00449078 to 0.00449078
Heightened Def Con from 0.00449079 to 0.00449079
Heightened Def Con from 0.00450988 to 0.00450989
Heightened Def Con from 0.00451077 to 0.00451078
Heightened Def Con from 0.00451078 to 0.00451079
Heightened Def Con from 0.00452989 to 0.00452989
Heightened Def Con from 0.00453077 to 0.00453077
Heightened Def Con from 0.00453078 to 0.00453078
Heightened Def Con from 0.00454989 to 0.00454989
Heightened Def Con from 0.00455076 to 0.00455077
Heightened Def Con from 0.00455077 to 0.00455078
Heightened Def Con from 0.0045699 to 0.0045699
Heightened Def Con from 0.00457076 to 0.00457076
Heightened Def Con from 0.00457077 to 0.00457078
Heightened Def Con from 0.0045899 to 0.0045899
Heightened Def Con from 0.00459076 to 0.00459076
Heightened Def Con from 0.00459077 to 0.00459077
Heightened Def Con from 0.0046099 to 0.00460991
Heightened Def Con from 0.00461075 to 0.00461076
Heightened Def Con from 0.00461076 to 0.00461077
Heightened Def Con from 0.0046299 to 0.00462991
Heightened Def Con from 0.00463075 to 0.00463075
Heightened Def Con from 0.00463076 to 0.00463076
Heightened Def Con from 0.00464991 to 0.00464991
Heightened Def Con from 0.00465075 to 0.00465075
Heightened Def Con from 0.00465076 to 0.00465076
Heightened Def Con from 0.00466991 to 0.00466992
Heightened Def Con from 0.00467074 to 0.00467075
Heightened Def Con from 0.00467075 to 0.00467076
Heightened Def Con from 0.00468991 to 0.00468992
Heightened Def Con from 0.00469074 to 0.00469075
Heightened Def Con from 0.00469075 to 0.00469076
Heightened Def Con from 0.00470991 to 0.00470992
Heightened Def Con from 0.00471074 to 0.00471074
Heightened Def Con from 0.00471075 to 0.00471075
Heightened Def Con from 0.00472992 to 0.00472992
Heightened Def Con from 0.00473074 to 0.00473074
Heightened Def Con from 0.00473075 to 0.00473075
Heightened Def Con from 0.00474992 to 0.00474993
Heightened Def Con from 0.00475073 to 0.00475074
Heightened Def Con from 0.00475075 to 0.00475075
Heightened Def Con from 0.00476992 to 0.00476993
Heightened Def Con from 0.00477073 to 0.00477074
Heightened Def Con from 0.00477074 to 0.00477075
Heightened Def Con from 0.00478992 to 0.00478993
Heightened Def Con from 0.00479073 to 0.00479073
Heightened Def Con from 0.00479074 to 0.00479074
Heightened Def Con from 0.00480993 to 0.00480993
Heightened Def Con from 0.00481073 to 0.00481073
Heightened Def Con from 0.00481074 to 0.00481074
Heightened Def Con from 0.00482993 to 0.00482993
Heightened Def Con from 0.00483073 to 0.00483073
Heightened Def Con from 0.00483074 to 0.00483074
Heightened Def Con from 0.00484993 to 0.00484993
Heightened Def Con from 0.00485072 to 0.00485073
Heightened Def Con from 0.00485074 to 0.00485074
Heightened Def Con from 0.00486993 to 0.00486993
Heightened Def Con from 0.00487072 to 0.00487073
Heightened Def Con from 0.00487074 to 0.00487074
Heightened Def Con from 0.00488993 to 0.00488993
Heightened Def Con from 0.00489072 to 0.00489073
Heightened Def Con from 0.00489073 to 0.00489074
Heightened Def Con from 0.00490993 to 0.00490994
Heightened Def Con from 0.00491072 to 0.00491073
Heightened Def Con from 0.00491073 to 0.00491074
Heightened Def Con from 0.00492993 to 0.00492994
Heightened Def Con from 0.00493072 to 0.00493073
Heightened Def Con from 0.00493073 to 0.00493074
Heightened Def Con from 0.00494993 to 0.00494994
Heightened Def Con from 0.00495072 to 0.00495073
Heightened Def Con from 0.00495073 to 0.00495074
Heightened Def Con from 0.00496993 to 0.00496994
Heightened Def Con from 0.00497072 to 0.00497073
Heightened Def Con from 0.00497073 to 0.00497074
Heightened Def Con from 0.00498993 to 0.00498994
Heightened Def Con from 0.00499072 to 0.00499072
Heightened Def Con from 0.00499073 to 0.00499074
Heightened Def Con from 0.00500993 to 0.00500994
Heightened Def Con from 0.00501072 to 0.00501072
Heightened Def Con from 0.00501073 to 0.00501074
Heightened Def Con from 0.00502993 to 0.00502994
Heightened Def Con from 0.00503072 to 0.00503072
Heightened Def Con from 0.00503073 to 0.00503074
Heightened Def Con from 0.00504993 to 0.00504994
Heightened Def Con from 0.00505072 to 0.00505073
Heightened Def Con from 0.00505073 to 0.00505074
Heightened Def Con from 0.00506993 to 0.00506994
Heightened Def Con from 0.00507072 to 0.00507073
Heightened Def Con from 0.00507073 to 0.00507074
Heightened Def Con from 0.00508993 to 0.00508994
Heightened Def Con from 0.00509072 to 0.00509073
Heightened Def Con from 0.00509073 to 0.00509074
Heightened Def Con from 0.00510993 to 0.00510994
Heightened Def Con from 0.00511072 to 0.00511073
Heightened Def Con from 0.00511073 to 0.00511074
Heightened Def Con from 0.00512993 to 0.00512993
Heightened Def Con from 0.00513072 to 0.00513073
Heightened Def Con from 0.00513074 to 0.00513074
Heightened Def Con from 0.00514993 to 0.00514993
Heightened Def Con from 0.00515073 to 0.00515073
Heightened Def Con from 0.00515074 to 0.00515074
Heightened Def Con from 0.00516993 to 0.00516993
Heightened Def Con from 0.00517073 to 0.00517073
Heightened Def Con from 0.00517074 to 0.00517074
Heightened Def Con from 0.00518992 to 0.00518993
Heightened Def Con from 0.00519073 to 0.00519073
Heightened Def Con from 0.00519074 to 0.00519075
Heightened Def Con from 0.00520992 to 0.00520993
Heightened Def Con from 0.00521073 to 0.00521073
Heightened Def Con from 0.00521074 to 0.00521075
Heightened Def Con from 0.00522992 to 0.00522993
Heightened Def Con from 0.00523073 to 0.00523074
Heightened Def Con from 0.00523074 to 0.00523075
Heightened Def Con from 0.00524992 to 0.00524992
Heightened Def Con from 0.00525073 to 0.00525074
Heightened Def Con from 0.00525075 to 0.00525075
Heightened Def Con from 0.00526992 to 0.00526992
Heightened Def Con from 0.00527073 to 0.00527074
Heightened Def Con from 0.00527075 to 0.00527075
Heightened Def Con from 0.00528992 to 0.00528992
Heightened Def Con from 0.00529074 to 0.00529074
Heightened Def Con from 0.00529075 to 0.00529075
Heightened Def Con from 0.0053099 to 0.00530991
Heightened Def Con from 0.00530991 to 0.00530992
Heightened Def Con from 0.00531074 to 0.00531075
Heightened Def Con from 0.00531075 to 0.00531076
Heightened Def Con from 0.00532991 to 0.00532992
Heightened Def Con from 0.00533074 to 0.00533075
Heightened Def Con from 0.00533076 to 0.00533076
Heightened Def Con from 0.00534935 to 0.00534935
Heightened Def Con from 0.00534991 to 0.00534991
Heightened Def Con from 0.00535075 to 0.00535075
Heightened Def Con from 0.00535076 to 0.00535076
Heightened Def Con from 0.0053699 to 0.00536991
Heightened Def Con from 0.00537075 to 0.00537075
Heightened Def Con from 0.00537076 to 0.00537077
Heightened Def Con from 0.0053899 to 0.0053899
Heightened Def Con from 0.00539075 to 0.00539076
Heightened Def Con from 0.00539076 to 0.00539077
Heightened Def Con from 0.0054099 to 0.0054099
Heightened Def Con from 0.00541076 to 0.00541076
Heightened Def Con from 0.00541077 to 0.00541077
Heightened Def Con from 0.00542989 to 0.0054299
Heightened Def Con from 0.00543076 to 0.00543077
Heightened Def Con from 0.00543077 to 0.00543078
Heightened Def Con from 0.00544989 to 0.0054499
Heightened Def Con from 0.00545076 to 0.00545077
Heightened Def Con from 0.00545078 to 0.00545078
Heightened Def Con from 0.00546988 to 0.00546989
Heightened Def Con from 0.00547077 to 0.00547077
Heightened Def Con from 0.00547078 to 0.00547078
Heightened Def Con from 0.00548988 to 0.00548989
Heightened Def Con from 0.00549077 to 0.00549078
Heightened Def Con from 0.00549078 to 0.00549079
Heightened Def Con from 0.00550988 to 0.00550988
Heightened Def Con from 0.00551078 to 0.00551078
Heightened Def Con from 0.00551079 to 0.00551079
Heightened Def Con from 0.00552987 to 0.00552988
Heightened Def Con from 0.00553078 to 0.00553079
Heightened Def Con from 0.00553079 to 0.0055308
Heightened Def Con from 0.00554987 to 0.00554987
Heightened Def Con from 0.00555079 to 0.00555079
Heightened Def Con from 0.0055508 to 0.0055508
Heightened Def Con from 0.00556986 to 0.00556987
Heightened Def Con from 0.00557079 to 0.0055708
Heightened Def Con from 0.0055708 to 0.00557081
Heightened Def Con from 0.00558986 to 0.00558986
Heightened Def Con from 0.0055908 to 0.0055908
Heightened Def Con from 0.00559081 to 0.00559081
Heightened Def Con from 0.00560985 to 0.00560986
Heightened Def Con from 0.0056108 to 0.00561081
Heightened Def Con from 0.00561081 to 0.00561082
Heightened Def Con from 0.00562985 to 0.00562985
Heightened Def Con from 0.0056308 to 0.00563081
Heightened Def Con from 0.00563082 to 0.00563082
Heightened Def Con from 0.00564984 to 0.00564985
Heightened Def Con from 0.00565081 to 0.00565082
Heightened Def Con from 0.00565082 to 0.00565083
Heightened Def Con from 0.00566984 to 0.00566984
Heightened Def Con from 0.00567082 to 0.00567082
Heightened Def Con from 0.00567083 to 0.00567083
Heightened Def Con from 0.00568983 to 0.00568984
Heightened Def Con from 0.00569082 to 0.00569083
Heightened Def Con from 0.00569083 to 0.00569084
Heightened Def Con from 0.00570983 to 0.00570983
Heightened Def Con from 0.00571083 to 0.00571083
Heightened Def Con from 0.00571084 to 0.00571085
Heightened Def Con from 0.00572982 to 0.00572982
Heightened Def Con from 0.00573084 to 0.00573084
Heightened Def Con from 0.00573085 to 0.00573085
Heightened Def Con from 0.00574981 to 0.00574982
Heightened Def Con from 0.00575084 to 0.00575085
Heightened Def Con from 0.00575085 to 0.00575086
Heightened Def Con from 0.0057513 to 0.0057513
Heightened Def Con from 0.00576981 to 0.00576981
Heightened Def Con from 0.00577085 to 0.00577085
Heightened Def Con from 0.00577086 to 0.00577086
Heightened Def Con from 0.0057898 to 0.0057898
Heightened Def Con from 0.00579085 to 0.00579086
Heightened Def Con from 0.00579086 to 0.00579087
Heightened Def Con from 0.0058098 to 0.0058098
Heightened Def Con from 0.00581086 to 0.00581087
Heightened Def Con from 0.00581087 to 0.00581088
Heightened Def Con from 0.00582979 to 0.00582979
Heightened Def Con from 0.00583087 to 0.00583087
Heightened Def Con from 0.00583088 to 0.00583089
Heightened Def Con from 0.00584978 to 0.00584978
Heightened Def Con from 0.00585088 to 0.00585088
Heightened Def Con from 0.00585089 to 0.00585089
Heightened Def Con from 0.00586977 to 0.00586978
Heightened Def Con from 0.00587089 to 0.00587089
Heightened Def Con from 0.0058709 to 0.0058709
Heightened Def Con from 0.00588976 to 0.00588977
Heightened Def Con from 0.00589089 to 0.0058909
Heightened Def Con from 0.0058909 to 0.00589091
Heightened Def Con from 0.00590976 to 0.00590976
Heightened Def Con from 0.0059109 to 0.0059109
Heightened Def Con from 0.00591091 to 0.00591091
Heightened Def Con from 0.00592975 to 0.00592975
Heightened Def Con from 0.00593091 to 0.00593091
Heightened Def Con from 0.00593092 to 0.00593092
Heightened Def Con from 0.00594974 to 0.00594974
Heightened Def Con from 0.00595091 to 0.00595092
Heightened Def Con from 0.00595093 to 0.00595093
Heightened Def Con from 0.00596973 to 0.00596974
Heightened Def Con from 0.00597092 to 0.00597093
Heightened Def Con from 0.00597093 to 0.00597094
Heightened Def Con from 0.00598972 to 0.00598973
Heightened Def Con from 0.00599093 to 0.00599093
Heightened Def Con from 0.00599094 to 0.00599095
Heightened Def Con from 0.00600972 to 0.00600972
Heightened Def Con from 0.00601094 to 0.00601094
Heightened Def Con from 0.00601095 to 0.00601095
Heightened Def Con from 0.00602971 to 0.00602971
Heightened Def Con from 0.00603095 to 0.00603095
Heightened Def Con from 0.00603096 to 0.00603096
Heightened Def Con from 0.0060497 to 0.0060497
Heightened Def Con from 0.00605096 to 0.00605096
Heightened Def Con from 0.00605097 to 0.00605097
Heightened Def Con from 0.00606969 to 0.00606969
Heightened Def Con from 0.00607097 to 0.00607097
Heightened Def Con from 0.00607098 to 0.00607098
Heightened Def Con from 0.00608968 to 0.00608968
Heightened Def Con from 0.00609098 to 0.00609098
Heightened Def Con from 0.00609099 to 0.00609099
Heightened Def Con from 0.00610967 to 0.00610968
Heightened Def Con from 0.00611098 to 0.00611099
Heightened Def Con from 0.00611099 to 0.006111
Heightened Def Con from 0.00612966 to 0.00612967
Heightened Def Con from 0.00613099 to 0.006131
Heightened Def Con from 0.00613101 to 0.00613101
Heightened Def Con from 0.00614965 to 0.00614966
Heightened Def Con from 0.006151 to 0.00615101
Heightened Def Con from 0.00615101 to 0.00615102
Heightened Def Con from 0.00616964 to 0.00616965
Heightened Def Con from 0.00617101 to 0.00617102
Heightened Def Con from 0.00617102 to 0.00617103
Heightened Def Con from 0.00618963 to 0.00618964
Heightened Def Con from 0.00619102 to 0.00619103
Heightened Def Con from 0.00619104 to 0.00619104
Heightened Def Con from 0.00620962 to 0.00620963
Heightened Def Con from 0.00621103 to 0.00621104
Heightened Def Con from 0.00621104 to 0.00621105
Heightened Def Con from 0.00622961 to 0.00622962
Heightened Def Con from 0.00623104 to 0.00623105
Heightened Def Con from 0.00623105 to 0.00623106
Heightened Def Con from 0.0062496 to 0.00624961
Heightened Def Con from 0.00625105 to 0.00625106
Heightened Def Con from 0.00625107 to 0.00625107
Heightened Def Con from 0.00626959 to 0.0062696
Heightened Def Con from 0.00627106 to 0.00627107
Heightened Def Con from 0.00627108 to 0.00627108
Heightened Def Con from 0.00628958 to 0.00628958
Heightened Def Con from 0.00629108 to 0.00629108
Heightened Def Con from 0.00629109 to 0.00629109
Heightened Def Con from 0.00630957 to 0.00630957
Heightened Def Con from 0.00631109 to 0.00631109
Heightened Def Con from 0.0063111 to 0.0063111
Heightened Def Con from 0.00632956 to 0.00632956
Heightened Def Con from 0.0063311 to 0.0063311
Heightened Def Con from 0.00633111 to 0.00633111
Heightened Def Con from 0.00634908 to 0.00634908
Heightened Def Con from 0.00634955 to 0.00634955
Heightened Def Con from 0.00635111 to 0.00635111
Heightened Def Con from 0.00635112 to 0.00635112
Heightened Def Con from 0.00636906 to 0.00636907
Heightened Def Con from 0.00636954 to 0.00636954
Heightened Def Con from 0.00637112 to 0.00637112
Heightened Def Con from 0.00637113 to 0.00637114
Heightened Def Con from 0.00638905 to 0.00638905
Heightened Def Con from 0.00638952 to 0.00638953
Heightened Def Con from 0.00639113 to 0.00639114
Heightened Def Con from 0.00639115 to 0.00639115
Heightened Def Con from 0.00640904 to 0.00640904
Heightened Def Con from 0.00640951 to 0.00640952
Heightened Def Con from 0.00641114 to 0.00641115
Heightened Def Con from 0.00641115 to 0.00641116
Heightened Def Con from 0.00642903 to 0.00642903
Heightened Def Con from 0.0064295 to 0.00642951
Heightened Def Con from 0.00643116 to 0.00643116
Heightened Def Con from 0.00643117 to 0.00643117
Heightened Def Con from 0.00644902 to 0.00644902
Heightened Def Con from 0.00644949 to 0.00644949
Heightened Def Con from 0.00645117 to 0.00645117
Heightened Def Con from 0.00645118 to 0.00645118
Heightened Def Con from 0.00646901 to 0.00646901
Heightened Def Con from 0.00646948 to 0.00646948
Heightened Def Con from 0.00647118 to 0.00647118
Heightened Def Con from 0.00647119 to 0.0064712
Heightened Def Con from 0.00648899 to 0.00648899
Heightened Def Con from 0.00648946 to 0.00648947
Heightened Def Con from 0.00649119 to 0.0064912
Heightened Def Con from 0.0064912 to 0.00649121
Heightened Def Con from 0.00650898 to 0.00650898
Heightened Def Con from 0.00650945 to 0.00650946
Heightened Def Con from 0.0065112 to 0.00651121
Heightened Def Con from 0.00651122 to 0.00651122
Heightened Def Con from 0.00652897 to 0.00652897
Heightened Def Con from 0.00652944 to 0.00652944
Heightened Def Con from 0.00653122 to 0.00653122
Heightened Def Con from 0.00653123 to 0.00653123
Heightened Def Con from 0.00654895 to 0.00654896
Heightened Def Con from 0.00654943 to 0.00654943
Heightened Def Con from 0.00655123 to 0.00655123
Heightened Def Con from 0.00655124 to 0.00655125
Heightened Def Con from 0.00656894 to 0.00656894
Heightened Def Con from 0.00656941 to 0.00656942
Heightened Def Con from 0.00657124 to 0.00657125
Heightened Def Con from 0.00657125 to 0.00657126
Heightened Def Con from 0.00658893 to 0.00658893
Heightened Def Con from 0.0065894 to 0.0065894
Heightened Def Con from 0.00659126 to 0.00659126
Heightened Def Con from 0.00659127 to 0.00659127
Heightened Def Con from 0.00660892 to 0.00660892
Heightened Def Con from 0.00660939 to 0.00660939
Heightened Def Con from 0.00661127 to 0.00661127
Heightened Def Con from 0.00661128 to 0.00661128
Heightened Def Con from 0.0066289 to 0.00662891
Heightened Def Con from 0.00662938 to 0.00662938
Heightened Def Con from 0.00663128 to 0.00663129
Heightened Def Con from 0.00663129 to 0.0066313
Heightened Def Con from 0.00664889 to 0.00664889
Heightened Def Con from 0.00664936 to 0.00664936
Heightened Def Con from 0.0066513 to 0.0066513
Heightened Def Con from 0.00665131 to 0.00665131
Heightened Def Con from 0.00666888 to 0.00666888
Heightened Def Con from 0.00666935 to 0.00666935
Heightened Def Con from 0.00667131 to 0.00667131
Heightened Def Con from 0.00667132 to 0.00667133
Heightened Def Con from 0.00668886 to 0.00668886
Heightened Def Con from 0.00668933 to 0.00668934
Heightened Def Con from 0.00669132 to 0.00669133
Heightened Def Con from 0.00669133 to 0.00669134
Heightened Def Con from 0.00670884 to 0.00670885
Heightened Def Con from 0.00670932 to 0.00670932
Heightened Def Con from 0.00671134 to 0.00671134
Heightened Def Con from 0.00671135 to 0.00671135
Heightened Def Con from 0.00672883 to 0.00672883
Heightened Def Con from 0.0067293 to 0.00672931
Heightened Def Con from 0.00673135 to 0.00673136
Heightened Def Con from 0.00673136 to 0.00673137
Heightened Def Con from 0.00674882 to 0.00674882
Heightened Def Con from 0.00674929 to 0.0067493
Heightened Def Con from 0.00675137 to 0.00675137
Heightened Def Con from 0.00675138 to 0.00675138
Heightened Def Con from 0.0067688 to 0.00676881
Heightened Def Con from 0.00676928 to 0.00676928
Heightened Def Con from 0.00677138 to 0.00677138
Heightened Def Con from 0.00677139 to 0.0067714
Heightened Def Con from 0.00678879 to 0.00678879
Heightened Def Con from 0.00678926 to 0.00678927
Heightened Def Con from 0.0067914 to 0.0067914
Heightened Def Con from 0.00679141 to 0.00679141
Heightened Def Con from 0.00680877 to 0.00680878
Heightened Def Con from 0.00680925 to 0.00680925
Heightened Def Con from 0.00681141 to 0.00681141
Heightened Def Con from 0.00681142 to 0.00681143
Heightened Def Con from 0.00682876 to 0.00682876
Heightened Def Con from 0.00682923 to 0.00682924
Heightened Def Con from 0.00683143 to 0.00683143
Heightened Def Con from 0.00683144 to 0.00683144
Heightened Def Con from 0.00684874 to 0.00684874
Heightened Def Con from 0.00684922 to 0.00684922
Heightened Def Con from 0.00685144 to 0.00685144
Heightened Def Con from 0.00685145 to 0.00685145
Heightened Def Con from 0.00686873 to 0.00686873
Heightened Def Con from 0.0068692 to 0.00686921
Heightened Def Con from 0.00687146 to 0.00687146
Heightened Def Con from 0.00687147 to 0.00687147
Heightened Def Con from 0.00688871 to 0.00688872
Heightened Def Con from 0.00688919 to 0.00688919
Heightened Def Con from 0.00689147 to 0.00689147
Heightened Def Con from 0.00689148 to 0.00689149
Heightened Def Con from 0.0069087 to 0.0069087
Heightened Def Con from 0.00690917 to 0.00690918
Heightened Def Con from 0.00691149 to 0.00691149
Heightened Def Con from 0.0069115 to 0.0069115
Heightened Def Con from 0.00692868 to 0.00692869
Heightened Def Con from 0.00692915 to 0.00692916
Heightened Def Con from 0.0069315 to 0.0069315
Heightened Def Con from 0.00693151 to 0.00693152
Heightened Def Con from 0.00694867 to 0.00694867
Heightened Def Con from 0.00694914 to 0.00694915
Heightened Def Con from 0.00695152 to 0.00695152
Heightened Def Con from 0.00695153 to 0.00695153
Heightened Def Con from 0.00696865 to 0.00696865
Heightened Def Con from 0.00696912 to 0.00696913
Heightened Def Con from 0.00697153 to 0.00697154
Heightened Def Con from 0.00697154 to 0.00697155
Heightened Def Con from 0.00698864 to 0.00698864
Heightened Def Con from 0.00698911 to 0.00698911
Heightened Def Con from 0.00699155 to 0.00699155
Heightened Def Con from 0.00699156 to 0.00699156
Heightened Def Con from 0.00700862 to 0.00700862
Heightened Def Con from 0.00700909 to 0.0070091
Heightened Def Con from 0.00701157 to 0.00701157
Heightened Def Con from 0.00701158 to 0.00701158
Heightened Def Con from 0.0070286 to 0.0070286
Heightened Def Con from 0.00702907 to 0.00702908
Heightened Def Con from 0.00703158 to 0.00703159
Heightened Def Con from 0.00703159 to 0.0070316
Heightened Def Con from 0.00704859 to 0.00704859
Heightened Def Con from 0.00704906 to 0.00704906
Heightened Def Con from 0.0070516 to 0.0070516
Heightened Def Con from 0.00705161 to 0.00705161
Heightened Def Con from 0.00706857 to 0.00706857
Heightened Def Con from 0.00706904 to 0.00706905
Heightened Def Con from 0.00707161 to 0.00707162
Heightened Def Con from 0.00707163 to 0.00707163
Heightened Def Con from 0.00708855 to 0.00708856
Heightened Def Con from 0.00708903 to 0.00708903
Heightened Def Con from 0.00709163 to 0.00709164
Heightened Def Con from 0.00709164 to 0.00709165
Heightened Def Con from 0.00710854 to 0.00710854
Heightened Def Con from 0.00710901 to 0.00710901
Heightened Def Con from 0.00711165 to 0.00711165
Heightened Def Con from 0.00711166 to 0.00711166
Heightened Def Con from 0.00712852 to 0.00712852
Heightened Def Con from 0.00712899 to 0.00712899
Heightened Def Con from 0.00713167 to 0.00713167
Heightened Def Con from 0.00713168 to 0.00713168
Heightened Def Con from 0.0071485 to 0.0071485
Heightened Def Con from 0.00714897 to 0.00714898
Heightened Def Con from 0.00715168 to 0.00715169
Heightened Def Con from 0.00715169 to 0.0071517
Heightened Def Con from 0.00716849 to 0.00716849
Heightened Def Con from 0.00716896 to 0.00716896
Heightened Def Con from 0.0071717 to 0.0071717
Heightened Def Con from 0.00717171 to 0.00717171
Heightened Def Con from 0.00718847 to 0.00718847
Heightened Def Con from 0.00718894 to 0.00718894
Heightened Def Con from 0.00719172 to 0.00719172
Heightened Def Con from 0.00719173 to 0.00719173
Heightened Def Con from 0.00720845 to 0.00720845
Heightened Def Con from 0.00720892 to 0.00720893
Heightened Def Con from 0.00721174 to 0.00721174
Heightened Def Con from 0.00721175 to 0.00721175
Heightened Def Con from 0.00722843 to 0.00722844
Heightened Def Con from 0.00722891 to 0.00722891
Heightened Def Con from 0.00723175 to 0.00723176
Heightened Def Con from 0.00723176 to 0.00723177
Heightened Def Con from 0.00724842 to 0.00724842
Heightened Def Con from 0.00724889 to 0.00724889
Heightened Def Con from 0.00725177 to 0.00725178
Heightened Def Con from 0.00725178 to 0.00725179
Heightened Def Con from 0.0072684 to 0.0072684
Heightened Def Con from 0.00726887 to 0.00726887
Heightened Def Con from 0.00727179 to 0.00727179
Heightened Def Con from 0.0072718 to 0.0072718
Heightened Def Con from 0.00728838 to 0.00728838
Heightened Def Con from 0.00728885 to 0.00728886
Heightened Def Con from 0.00729181 to 0.00729181
Heightened Def Con from 0.00729182 to 0.00729182
Heightened Def Con from 0.00730836 to 0.00730836
Heightened Def Con from 0.00730883 to 0.00730884
Heightened Def Con from 0.00731182 to 0.00731183
Heightened Def Con from 0.00731184 to 0.00731184
Heightened Def Con from 0.00732834 to 0.00732834
Heightened Def Con from 0.00732881 to 0.00732882
Heightened Def Con from 0.00733184 to 0.00733185
Heightened Def Con from 0.00733185 to 0.00733186
Heightened Def Con from 0.00734832 to 0.00734833
Heightened Def Con from 0.0073488 to 0.0073488
Heightened Def Con from 0.00735186 to 0.00735187
Heightened Def Con from 0.00735187 to 0.00735188
Heightened Def Con from 0.00736831 to 0.00736831
Heightened Def Con from 0.00736878 to 0.00736878
Heightened Def Con from 0.00737188 to 0.00737188
Heightened Def Con from 0.00737189 to 0.0073719
Heightened Def Con from 0.00738829 to 0.00738829
Heightened Def Con from 0.00738876 to 0.00738876
Heightened Def Con from 0.0073919 to 0.0073919
Heightened Def Con from 0.00739191 to 0.00739191
Heightened Def Con from 0.00740827 to 0.00740827
Heightened Def Con from 0.00740874 to 0.00740875
Heightened Def Con from 0.00741192 to 0.00741192
Heightened Def Con from 0.00741193 to 0.00741193
Heightened Def Con from 0.00742872 to 0.00742873
Heightened Def Con from 0.00743194 to 0.00743194
Heightened Def Con from 0.00743195 to 0.00743195
Heightened Def Con from 0.0074487 to 0.00744871
Heightened Def Con from 0.00745196 to 0.00745196
Heightened Def Con from 0.00745197 to 0.00745197
Heightened Def Con from 0.00746868 to 0.00746869
Heightened Def Con from 0.00747197 to 0.00747198
Heightened Def Con from 0.00747199 to 0.00747199
Heightened Def Con from 0.00748866 to 0.00748867
Heightened Def Con from 0.00749199 to 0.007492
Heightened Def Con from 0.00749201 to 0.00749201
Heightened Def Con from 0.00750864 to 0.00750865
Heightened Def Con from 0.00751201 to 0.00751202
Heightened Def Con from 0.00751202 to 0.00751203
Heightened Def Con from 0.00752862 to 0.00752863
Heightened Def Con from 0.00753203 to 0.00753204
Heightened Def Con from 0.00753204 to 0.00753205
Heightened Def Con from 0.0075486 to 0.00754861
Heightened Def Con from 0.00755205 to 0.00755206
Heightened Def Con from 0.00755206 to 0.00755207
Heightened Def Con from 0.00756858 to 0.00756859
Heightened Def Con from 0.00757207 to 0.00757208
Heightened Def Con from 0.00757208 to 0.00757209
Heightened Def Con from 0.00758857 to 0.00758857
Heightened Def Con from 0.00759209 to 0.0075921
Heightened Def Con from 0.0075921 to 0.00759211
Heightened Def Con from 0.00760854 to 0.00760855
Heightened Def Con from 0.00761211 to 0.00761212
Heightened Def Con from 0.00761212 to 0.00761213
Heightened Def Con from 0.00762853 to 0.00762853
Heightened Def Con from 0.00763213 to 0.00763214
Heightened Def Con from 0.00763214 to 0.00763215
Heightened Def Con from 0.0076485 to 0.00764851
Heightened Def Con from 0.00765215 to 0.00765216
Heightened Def Con from 0.00765217 to 0.00765217
Heightened Def Con from 0.00766848 to 0.00766849
Heightened Def Con from 0.00767217 to 0.00767218
Heightened Def Con from 0.00767218 to 0.00767219
Heightened Def Con from 0.00768846 to 0.00768847
Heightened Def Con from 0.00769219 to 0.0076922
Heightened Def Con from 0.0076922 to 0.00769221
Heightened Def Con from 0.00770844 to 0.00770845
Heightened Def Con from 0.00771221 to 0.00771222
Heightened Def Con from 0.00771223 to 0.00771223
Heightened Def Con from 0.00772842 to 0.00772843
Heightened Def Con from 0.00773224 to 0.00773224
Heightened Def Con from 0.00773225 to 0.00773225
Heightened Def Con from 0.0077484 to 0.00774841
Heightened Def Con from 0.00775226 to 0.00775226
Heightened Def Con from 0.00775227 to 0.00775227
Heightened Def Con from 0.00776838 to 0.00776839
Heightened Def Con from 0.00777228 to 0.00777228
Heightened Def Con from 0.00777229 to 0.00777229
Heightened Def Con from 0.00778836 to 0.00778837
Heightened Def Con from 0.0077923 to 0.0077923
Heightened Def Con from 0.00779231 to 0.00779232
Heightened Def Con from 0.00780834 to 0.00780834
Heightened Def Con from 0.00781232 to 0.00781232
Heightened Def Con from 0.00781233 to 0.00781234
Heightened Def Con from 0.00782832 to 0.00782832
Heightened Def Con from 0.00783234 to 0.00783235
Heightened Def Con from 0.00783235 to 0.00783236
Heightened Def Con from 0.0078483 to 0.0078483
Heightened Def Con from 0.00785236 to 0.00785237
Heightened Def Con from 0.00785237 to 0.00785238
Heightened Def Con from 0.00786828 to 0.00786828
Heightened Def Con from 0.00787238 to 0.00787239
Heightened Def Con from 0.00787239 to 0.0078724
Heightened Def Con from 0.00788825 to 0.00788826
Heightened Def Con from 0.00789241 to 0.00789241
Heightened Def Con from 0.00789242 to 0.00789242
Heightened Def Con from 0.00790823 to 0.00790824
Heightened Def Con from 0.00791243 to 0.00791243
Heightened Def Con from 0.00791244 to 0.00791244
Heightened Def Con from 0.00792821 to 0.00792821
Heightened Def Con from 0.00793245 to 0.00793245
Heightened Def Con from 0.00793246 to 0.00793246
Heightened Def Con from 0.00794819 to 0.0079482
Heightened Def Con from 0.00795247 to 0.00795248
Heightened Def Con from 0.00795248 to 0.00795249
Heightened Def Con from 0.00796817 to 0.00796817
Heightened Def Con from 0.00797249 to 0.0079725
Heightened Def Con from 0.0079725 to 0.00797251
Heightened Def Con from 0.00798814 to 0.00798815
Heightened Def Con from 0.00799252 to 0.00799252
Heightened Def Con from 0.00799253 to 0.00799253
Heightened Def Con from 0.00800811 to 0.00800811
Heightened Def Con from 0.00800812 to 0.00800813
Heightened Def Con from 0.00801254 to 0.00801254
Heightened Def Con from 0.00801255 to 0.00801255
Heightened Def Con from 0.0080281 to 0.0080281
Heightened Def Con from 0.00803256 to 0.00803256
Heightened Def Con from 0.00803257 to 0.00803257
Heightened Def Con from 0.00804808 to 0.00804808
Heightened Def Con from 0.00805258 to 0.00805259
Heightened Def Con from 0.00805259 to 0.0080526
Heightened Def Con from 0.00806806 to 0.00806806
Heightened Def Con from 0.00807261 to 0.00807261
Heightened Def Con from 0.00807262 to 0.00807262
Heightened Def Con from 0.00808803 to 0.00808804
Heightened Def Con from 0.00809263 to 0.00809263
Heightened Def Con from 0.00809264 to 0.00809264
Heightened Def Con from 0.00810801 to 0.00810801
Heightened Def Con from 0.00811265 to 0.00811265
Heightened Def Con from 0.00811266 to 0.00811266
Heightened Def Con from 0.00812799 to 0.00812799
Heightened Def Con from 0.00813267 to 0.00813268
Heightened Def Con from 0.00813268 to 0.00813269
Heightened Def Con from 0.00814796 to 0.00814797
Heightened Def Con from 0.0081527 to 0.0081527
Heightened Def Con from 0.00815271 to 0.00815271
Heightened Def Con from 0.00816794 to 0.00816795
Heightened Def Con from 0.00817272 to 0.00817272
Heightened Def Con from 0.00817273 to 0.00817273
Heightened Def Con from 0.00818792 to 0.00818792
Heightened Def Con from 0.00819275 to 0.00819275
Heightened Def Con from 0.00819276 to 0.00819276
Heightened Def Con from 0.00820789 to 0.0082079
Heightened Def Con from 0.00821277 to 0.00821277
Heightened Def Con from 0.00821278 to 0.00821278
Heightened Def Con from 0.00822787 to 0.00822788
Heightened Def Con from 0.00823279 to 0.00823279
Heightened Def Con from 0.0082328 to 0.0082328
Heightened Def Con from 0.00824785 to 0.00824785
Heightened Def Con from 0.00825281 to 0.00825282
Heightened Def Con from 0.00825282 to 0.00825283
Heightened Def Con from 0.00826782 to 0.00826783
Heightened Def Con from 0.00827284 to 0.00827284
Heightened Def Con from 0.00827285 to 0.00827285
Heightened Def Con from 0.0082878 to 0.00828781
Heightened Def Con from 0.00829286 to 0.00829286
Heightened Def Con from 0.00829287 to 0.00829287
Heightened Def Con from 0.00830778 to 0.00830778
Heightened Def Con from 0.00831288 to 0.00831289
Heightened Def Con from 0.00831289 to 0.0083129
Heightened Def Con from 0.00832775 to 0.00832776
Heightened Def Con from 0.00833291 to 0.00833291
Heightened Def Con from 0.00833292 to 0.00833292
Heightened Def Con from 0.00834773 to 0.00834773
Heightened Def Con from 0.00835293 to 0.00835294
Heightened Def Con from 0.00835294 to 0.00835295
Heightened Def Con from 0.00836771 to 0.00836771
Heightened Def Con from 0.00837296 to 0.00837296
Heightened Def Con from 0.00837297 to 0.00837297
Heightened Def Con from 0.00838768 to 0.00838769
Heightened Def Con from 0.00839298 to 0.00839298
Heightened Def Con from 0.00839299 to 0.00839299
Heightened Def Con from 0.00840766 to 0.00840766
Heightened Def Con from 0.008413 to 0.00841301
Heightened Def Con from 0.00841301 to 0.00841302
Heightened Def Con from 0.00842764 to 0.00842764
Heightened Def Con from 0.00843303 to 0.00843303
Heightened Def Con from 0.00843304 to 0.00843304
Heightened Def Con from 0.00844761 to 0.00844761
Heightened Def Con from 0.00845305 to 0.00845306
Heightened Def Con from 0.00845306 to 0.00845307
Heightened Def Con from 0.00846759 to 0.00846759
Heightened Def Con from 0.00847308 to 0.00847308
Heightened Def Con from 0.00847309 to 0.00847309
Heightened Def Con from 0.00848756 to 0.00848757
Heightened Def Con from 0.0084931 to 0.00849311
Heightened Def Con from 0.00849311 to 0.00849312
Heightened Def Con from 0.00850754 to 0.00850754
Heightened Def Con from 0.00851313 to 0.00851313
Heightened Def Con from 0.00851314 to 0.00851314
Heightened Def Con from 0.00852751 to 0.00852752
Heightened Def Con from 0.00853315 to 0.00853315
Heightened Def Con from 0.00853316 to 0.00853316
Heightened Def Con from 0.00854749 to 0.00854749
Heightened Def Con from 0.00855317 to 0.00855318
Heightened Def Con from 0.00855318 to 0.00855319
Heightened Def Con from 0.00856746 to 0.00856747
Heightened Def Con from 0.0085732 to 0.0085732
Heightened Def Con from 0.00857321 to 0.00857321
Heightened Def Con from 0.00858744 to 0.00858744
Heightened Def Con from 0.00859322 to 0.00859323
Heightened Def Con from 0.00859323 to 0.00859324
Heightened Def Con from 0.00860741 to 0.00860742
Heightened Def Con from 0.00861325 to 0.00861325
Heightened Def Con from 0.00861326 to 0.00861326
Heightened Def Con from 0.00862739 to 0.00862739
Heightened Def Con from 0.00863327 to 0.00863328
Heightened Def Con from 0.00863328 to 0.00863329
Heightened Def Con from 0.00864736 to 0.00864737
Heightened Def Con from 0.0086533 to 0.0086533
Heightened Def Con from 0.00865331 to 0.00865331
Heightened Def Con from 0.00866734 to 0.00866734
Heightened Def Con from 0.00867332 to 0.00867333
Heightened Def Con from 0.00867333 to 0.00867334
Heightened Def Con from 0.00868731 to 0.00868732
Heightened Def Con from 0.00869335 to 0.00869335
Heightened Def Con from 0.00869336 to 0.00869336
Heightened Def Con from 0.00870729 to 0.00870729
Heightened Def Con from 0.00871337 to 0.00871338
Heightened Def Con from 0.00871338 to 0.00871339
Heightened Def Con from 0.00872726 to 0.00872727
Heightened Def Con from 0.0087334 to 0.0087334
Heightened Def Con from 0.00873341 to 0.00873341
Heightened Def Con from 0.00874724 to 0.00874724
Heightened Def Con from 0.00875343 to 0.00875343
Heightened Def Con from 0.00875344 to 0.00875344
Heightened Def Con from 0.00876721 to 0.00876722
Heightened Def Con from 0.00877345 to 0.00877345
Heightened Def Con from 0.00877346 to 0.00877346
Heightened Def Con from 0.00878719 to 0.00878719
Heightened Def Con from 0.00879348 to 0.00879348
Heightened Def Con from 0.00879349 to 0.00879349
Heightened Def Con from 0.00880716 to 0.00880717
Heightened Def Con from 0.0088135 to 0.00881351
Heightened Def Con from 0.00881351 to 0.00881352
Heightened Def Con from 0.00882714 to 0.00882714
Heightened Def Con from 0.00883353 to 0.00883353
Heightened Def Con from 0.00883354 to 0.00883354
Heightened Def Con from 0.00884711 to 0.00884711
Heightened Def Con from 0.00885355 to 0.00885356
Heightened Def Con from 0.00885356 to 0.00885357
Heightened Def Con from 0.00886708 to 0.00886709
Heightened Def Con from 0.00887358 to 0.00887358
Heightened Def Con from 0.00887359 to 0.00887359
Heightened Def Con from 0.00888706 to 0.00888706
Heightened Def Con from 0.00889361 to 0.00889361
Heightened Def Con from 0.00889362 to 0.00889362
Heightened Def Con from 0.00890703 to 0.00890704
Heightened Def Con from 0.00891363 to 0.00891364
Heightened Def Con from 0.00891364 to 0.00891365
Heightened Def Con from 0.00892701 to 0.00892701
Heightened Def Con from 0.00893366 to 0.00893366
Heightened Def Con from 0.00893366 to 0.00893367
Heightened Def Con from 0.00894698 to 0.00894699
Heightened Def Con from 0.00895368 to 0.00895369
Heightened Def Con from 0.00895369 to 0.0089537
Heightened Def Con from 0.00896696 to 0.00896696
Heightened Def Con from 0.00897371 to 0.00897371
Heightened Def Con from 0.00897372 to 0.00897372
Heightened Def Con from 0.00898692 to 0.00898692
Heightened Def Con from 0.00898693 to 0.00898693
Heightened Def Con from 0.00899374 to 0.00899374
Heightened Def Con from 0.00899374 to 0.00899375
Heightened Def Con from 0.0090069 to 0.00900691
Heightened Def Con from 0.00901376 to 0.00901377
Heightened Def Con from 0.00901377 to 0.00901377
Heightened Def Con from 0.00902688 to 0.00902688
Heightened Def Con from 0.00903379 to 0.00903379
Heightened Def Con from 0.0090338 to 0.0090338
Heightened Def Con from 0.00904685 to 0.00904686
Heightened Def Con from 0.00905381 to 0.00905382
Heightened Def Con from 0.00905382 to 0.00905383
Heightened Def Con from 0.00906682 to 0.00906683
Heightened Def Con from 0.00907384 to 0.00907384
Heightened Def Con from 0.00907385 to 0.00907385
Heightened Def Con from 0.0090868 to 0.0090868
Heightened Def Con from 0.00909387 to 0.00909387
Heightened Def Con from 0.00909388 to 0.00909388
Heightened Def Con from 0.00910677 to 0.00910678
Heightened Def Con from 0.00911389 to 0.0091139
Heightened Def Con from 0.0091139 to 0.00911391
Heightened Def Con from 0.00912674 to 0.00912675
Heightened Def Con from 0.00913392 to 0.00913392
Heightened Def Con from 0.00913393 to 0.00913393
Heightened Def Con from 0.00914672 to 0.00914672
Heightened Def Con from 0.00915395 to 0.00915395
Heightened Def Con from 0.00915396 to 0.00915396
Heightened Def Con from 0.00916669 to 0.0091667
Heightened Def Con from 0.00917397 to 0.00917398
Heightened Def Con from 0.00917398 to 0.00917399
Heightened Def Con from 0.00918667 to 0.00918667
Heightened Def Con from 0.009194 to 0.009194
Heightened Def Con from 0.00919401 to 0.00919401
Heightened Def Con from 0.00920664 to 0.00920664
Heightened Def Con from 0.00921403 to 0.00921403
Heightened Def Con from 0.00921404 to 0.00921404
Heightened Def Con from 0.00922661 to 0.00922662
Heightened Def Con from 0.00923405 to 0.00923406
Heightened Def Con from 0.00923406 to 0.00923407
Heightened Def Con from 0.00924659 to 0.00924659
Heightened Def Con from 0.00925408 to 0.00925409
Heightened Def Con from 0.00925409 to 0.00925409
Heightened Def Con from 0.00926656 to 0.00926656
Heightened Def Con from 0.00927411 to 0.00927411
Heightened Def Con from 0.00927412 to 0.00927412
Heightened Def Con from 0.00928653 to 0.00928654
Heightened Def Con from 0.00929413 to 0.00929414
Heightened Def Con from 0.00929414 to 0.00929415
Heightened Def Con from 0.00930651 to 0.00930651
Heightened Def Con from 0.00931416 to 0.00931417
Heightened Def Con from 0.00931417 to 0.00931417
Heightened Def Con from 0.00932648 to 0.00932648
Heightened Def Con from 0.00933419 to 0.00933419
Heightened Def Con from 0.0093342 to 0.0093342
Heightened Def Con from 0.00934645 to 0.00934646
Heightened Def Con from 0.00935421 to 0.00935422
Heightened Def Con from 0.00935422 to 0.00935423
Heightened Def Con from 0.00936642 to 0.00936643
Heightened Def Con from 0.00937424 to 0.00937425
Heightened Def Con from 0.00937425 to 0.00937425
Heightened Def Con from 0.0093864 to 0.0093864
Heightened Def Con from 0.00939427 to 0.00939427
Heightened Def Con from 0.00939428 to 0.00939428
Heightened Def Con from 0.00940637 to 0.00940638
Heightened Def Con from 0.00941429 to 0.0094143
Heightened Def Con from 0.0094143 to 0.00941431
Heightened Def Con from 0.00942634 to 0.00942635
Heightened Def Con from 0.00943432 to 0.00943433
Heightened Def Con from 0.00943433 to 0.00943433
Heightened Def Con from 0.00944632 to 0.00944632
Heightened Def Con from 0.00945435 to 0.00945435
Heightened Def Con from 0.00945436 to 0.00945436
Heightened Def Con from 0.00946629 to 0.0094663
Heightened Def Con from 0.00947438 to 0.00947438
Heightened Def Con from 0.00947438 to 0.00947439
Heightened Def Con from 0.00948626 to 0.00948627
Heightened Def Con from 0.0094944 to 0.00949441
Heightened Def Con from 0.00949441 to 0.00949441
Heightened Def Con from 0.00950624 to 0.00950624
Heightened Def Con from 0.00952621 to 0.00952621
Heightened Def Con from 0.00954618 to 0.00954619
Heightened Def Con from 0.00956615 to 0.00956616
Heightened Def Con from 0.00958613 to 0.00958613
Heightened Def Con from 0.009595 to 0.00959501
Heightened Def Con from 0.0096061 to 0.0096061
Heightened Def Con from 0.00961503 to 0.00961504
Heightened Def Con from 0.00962607 to 0.00962608
Heightened Def Con from 0.00963506 to 0.00963506
Heightened Def Con from 0.00964604 to 0.00964605
Heightened Def Con from 0.00965509 to 0.00965509
Heightened Def Con from 0.00966602 to 0.00966603
Heightened Def Con from 0.00967511 to 0.00967512
Heightened Def Con from 0.00968599 to 0.00968599
Heightened Def Con from 0.00969514 to 0.00969514
Heightened Def Con from 0.00970596 to 0.00970597
Heightened Def Con from 0.00971517 to 0.00971517
Heightened Def Con from 0.00972594 to 0.00972594
Heightened Def Con from 0.00973519 to 0.0097352
Heightened Def Con from 0.00974591 to 0.00974591
Heightened Def Con from 0.00975522 to 0.00975523
Heightened Def Con from 0.00976588 to 0.00976589
Heightened Def Con from 0.00977525 to 0.00977526
Heightened Def Con from 0.00978585 to 0.00978586
Heightened Def Con from 0.00979528 to 0.00979528
Heightened Def Con from 0.00980583 to 0.00980583
Heightened Def Con from 0.0098153 to 0.00981531
Heightened Def Con from 0.0098258 to 0.0098258
Heightened Def Con from 0.00983533 to 0.00983534
Heightened Def Con from 0.00984577 to 0.00984578
Heightened Def Con from 0.00985536 to 0.00985537
Heightened Def Con from 0.00986574 to 0.00986575
Heightened Def Con from 0.00987539 to 0.00987539
Heightened Def Con from 0.00988572 to 0.00988572
Heightened Def Con from 0.00989542 to 0.00989542
Heightened Def Con from 0.00990569 to 0.0099057
Heightened Def Con from 0.00991544 to 0.00991545
Heightened Def Con from 0.00992566 to 0.00992567
Heightened Def Con from 0.00993547 to 0.00993547
Heightened Def Con from 0.00994563 to 0.00994564
Heightened Def Con from 0.0099555 to 0.0099555
Heightened Def Con from 0.00996561 to 0.00996561
Heightened Def Con from 0.00997552 to 0.00997553
Heightened Def Con from 0.00998558 to 0.00998558
Heightened Def Con from 0.00999555 to 0.00999556
Heightened Def Con from 0.0100055 to 0.0100056
Heightened Def Con from 0.0100156 to 0.0100156
Heightened Def Con from 0.0100255 to 0.0100255
Heightened Def Con from 0.0100356 to 0.0100356
Heightened Def Con from 0.0100455 to 0.0100455
Heightened Def Con from 0.0100556 to 0.0100556
Heightened Def Con from 0.0100655 to 0.0100655
Heightened Def Con from 0.0100757 to 0.0100757
Heightened Def Con from 0.0100854 to 0.0100854
Heightened Def Con from 0.0100957 to 0.0100957
Heightened Def Con from 0.0101054 to 0.0101054
Heightened Def Con from 0.0101157 to 0.0101157
Heightened Def Con from 0.0101254 to 0.0101254
Heightened Def Con from 0.0101357 to 0.0101357
Heightened Def Con from 0.0101454 to 0.0101454
Heightened Def Con from 0.0101558 to 0.0101558
Heightened Def Con from 0.0101653 to 0.0101653
Heightened Def Con from 0.0101758 to 0.0101758
Heightened Def Con from 0.0101853 to 0.0101853
Heightened Def Con from 0.0101958 to 0.0101958
Heightened Def Con from 0.0102053 to 0.0102053
Heightened Def Con from 0.0102159 to 0.0102159
Heightened Def Con from 0.0102252 to 0.0102253
Heightened Def Con from 0.0102359 to 0.0102359
Heightened Def Con from 0.0102452 to 0.0102452
Heightened Def Con from 0.0102559 to 0.0102559
Heightened Def Con from 0.0102652 to 0.0102652
Heightened Def Con from 0.0102759 to 0.0102759
Heightened Def Con from 0.0102852 to 0.0102852
Heightened Def Con from 0.010296 to 0.010296
Heightened Def Con from 0.0103051 to 0.0103051
Heightened Def Con from 0.010316 to 0.010316
Heightened Def Con from 0.0103251 to 0.0103251
Heightened Def Con from 0.010336 to 0.010336
Heightened Def Con from 0.010336 to 0.010336
Heightened Def Con from 0.0103451 to 0.0103451
Heightened Def Con from 0.010356 to 0.0103561
Heightened Def Con from 0.0103651 to 0.0103651
Heightened Def Con from 0.0103761 to 0.0103761
Heightened Def Con from 0.010385 to 0.010385
Heightened Def Con from 0.0103961 to 0.0103961
Heightened Def Con from 0.010405 to 0.010405
Heightened Def Con from 0.0104161 to 0.0104161
Heightened Def Con from 0.010425 to 0.010425
Heightened Def Con from 0.0104362 to 0.0104362
Heightened Def Con from 0.0104562 to 0.0104562
Heightened Def Con from 0.0104762 to 0.0104762
Heightened Def Con from 0.0104962 to 0.0104962
Heightened Def Con from 0.0105044 to 0.0105044
Heightened Def Con from 0.0105163 to 0.0105163
Heightened Def Con from 0.0105244 to 0.0105244
Heightened Def Con from 0.0105363 to 0.0105363
Heightened Def Con from 0.0105444 to 0.0105444
Heightened Def Con from 0.0105444 to 0.0105444
Heightened Def Con from 0.0105563 to 0.0105563
[...]
Heightened Def Con from 0.0178583 to 0.0178583
Heightened Def Con from 0.0178624 to 0.0178624
Heightened Def Con from 0.0178624 to 0.0178624
Heightened Def Con from 0.0178783 to 0.0178783
Heightened Def Con from 0.0178824 to 0.0178824
Heightened Def Con from 0.0178824 to 0.0178824
Heightened Def Con from 0.0178982 to 0.0178982
Heightened Def Con from 0.0179024 to 0.0179024
Heightened Def Con from 0.0179024 to 0.0179024
Heightened Def Con from 0.0179182 to 0.0179182
Heightened Def Con from 0.0179224 to 0.0179224
Heightened Def Con from 0.0179224 to 0.0179225
Heightened Def Con from 0.0179382 to 0.0179382
Heightened Def Con from 0.0179425 to 0.0179425
Heightened Def Con from 0.0179425 to 0.0179425
Heightened Def Con from 0.0179582 to 0.0179582
Heightened Def Con from 0.0179625 to 0.0179625
Heightened Def Con from 0.0179625 to 0.0179625
Heightened Def Con from 0.0179782 to 0.0179782
Heightened Def Con from 0.0179825 to 0.0179825
Heightened Def Con from 0.0179825 to 0.0179825
Heightened Def Con from 0.0179981 to 0.0179981
Heightened Def Con from 0.0180025 to 0.0180025
Heightened Def Con from 0.0180025 to 0.0180025
Heightened Def Con from 0.0180181 to 0.0180181
Heightened Def Con from 0.0180226 to 0.0180226
Heightened Def Con from 0.0180226 to 0.0180226
Heightened Def Con from 0.0180381 to 0.0180381
Heightened Def Con from 0.0180426 to 0.0180426
Heightened Def Con from 0.0180426 to 0.0180426
Heightened Def Con from 0.0180581 to 0.0180581
Heightened Def Con from 0.0180626 to 0.0180626
Heightened Def Con from 0.0180626 to 0.0180626
Heightened Def Con from 0.018078 to 0.018078
Heightened Def Con from 0.0180826 to 0.0180826
Heightened Def Con from 0.0180826 to 0.0180826
Heightened Def Con from 0.018098 to 0.018098
Heightened Def Con from 0.0181026 to 0.0181026
Heightened Def Con from 0.0181026 to 0.0181027
Heightened Def Con from 0.018118 to 0.018118
Heightened Def Con from 0.0181227 to 0.0181227
Heightened Def Con from 0.0181227 to 0.0181227
Heightened Def Con from 0.018138 to 0.018138
Heightened Def Con from 0.0181427 to 0.0181427
Heightened Def Con from 0.0181427 to 0.0181427
Heightened Def Con from 0.018158 to 0.018158
Heightened Def Con from 0.0181627 to 0.0181627
Heightened Def Con from 0.0181627 to 0.0181627
Heightened Def Con from 0.0181779 to 0.0181779
Heightened Def Con from 0.0181827 to 0.0181827
Heightened Def Con from 0.0181827 to 0.0181827
Heightened Def Con from 0.0181979 to 0.0181979
Heightened Def Con from 0.0182028 to 0.0182028
Heightened Def Con from 0.0182028 to 0.0182028
Heightened Def Con from 0.0182179 to 0.0182179
Heightened Def Con from 0.0182228 to 0.0182228
Heightened Def Con from 0.0182228 to 0.0182228
Heightened Def Con from 0.0182379 to 0.0182379
Heightened Def Con from 0.0182428 to 0.0182428
Heightened Def Con from 0.0182428 to 0.0182428
Heightened Def Con from 0.0182578 to 0.0182578
Heightened Def Con from 0.0182628 to 0.0182628
Heightened Def Con from 0.0182628 to 0.0182628
Heightened Def Con from 0.0182778 to 0.0182778
Heightened Def Con from 0.0182828 to 0.0182829
Heightened Def Con from 0.0182829 to 0.0182829
Heightened Def Con from 0.0182978 to 0.0182978
Heightened Def Con from 0.0183029 to 0.0183029
Heightened Def Con from 0.0183029 to 0.0183029
Heightened Def Con from 0.0183178 to 0.0183178
Heightened Def Con from 0.0183229 to 0.0183229
Heightened Def Con from 0.0183229 to 0.0183229
Heightened Def Con from 0.0183377 to 0.0183377
Heightened Def Con from 0.0183429 to 0.0183429
Heightened Def Con from 0.0183429 to 0.0183429
Heightened Def Con from 0.0183577 to 0.0183577
Heightened Def Con from 0.0183629 to 0.0183629
Heightened Def Con from 0.018363 to 0.018363
Heightened Def Con from 0.0183777 to 0.0183777
Heightened Def Con from 0.018383 to 0.018383
Heightened Def Con from 0.018383 to 0.018383
Heightened Def Con from 0.0183977 to 0.0183977
Heightened Def Con from 0.018403 to 0.018403
Heightened Def Con from 0.018403 to 0.018403
Heightened Def Con from 0.0184176 to 0.0184177
Heightened Def Con from 0.018423 to 0.018423
Heightened Def Con from 0.018423 to 0.018423
Heightened Def Con from 0.0184376 to 0.0184376
Heightened Def Con from 0.018443 to 0.018443
Heightened Def Con from 0.018443 to 0.0184431
Heightened Def Con from 0.0184576 to 0.0184576
Heightened Def Con from 0.0184631 to 0.0184631
Heightened Def Con from 0.0184631 to 0.0184631
Heightened Def Con from 0.0184776 to 0.0184776
Heightened Def Con from 0.0184831 to 0.0184831
Heightened Def Con from 0.0184831 to 0.0184831
Heightened Def Con from 0.0184975 to 0.0184976
Heightened Def Con from 0.0185031 to 0.0185031
Heightened Def Con from 0.0185031 to 0.0185031
Heightened Def Con from 0.0185175 to 0.0185175
Heightened Def Con from 0.0185231 to 0.0185231
Heightened Def Con from 0.0185231 to 0.0185232
Heightened Def Con from 0.0185375 to 0.0185375
Heightened Def Con from 0.0185432 to 0.0185432
Heightened Def Con from 0.0185432 to 0.0185432
Heightened Def Con from 0.0185575 to 0.0185575
Heightened Def Con from 0.0185632 to 0.0185632
Heightened Def Con from 0.0185632 to 0.0185632
Heightened Def Con from 0.0185774 to 0.0185775
Heightened Def Con from 0.0185832 to 0.0185832
Heightened Def Con from 0.0185832 to 0.0185832
Heightened Def Con from 0.0185974 to 0.0185974
Heightened Def Con from 0.0186032 to 0.0186032
Heightened Def Con from 0.0186032 to 0.0186033
Heightened Def Con from 0.0186174 to 0.0186174
Heightened Def Con from 0.0186233 to 0.0186233
Heightened Def Con from 0.0186233 to 0.0186233
Heightened Def Con from 0.0186374 to 0.0186374
Heightened Def Con from 0.0186433 to 0.0186433
Heightened Def Con from 0.0186433 to 0.0186433
Heightened Def Con from 0.0186574 to 0.0186574
Heightened Def Con from 0.0186633 to 0.0186633
Heightened Def Con from 0.0186633 to 0.0186633
Heightened Def Con from 0.0186773 to 0.0186773
Heightened Def Con from 0.0186833 to 0.0186833
Heightened Def Con from 0.0186833 to 0.0186834
Heightened Def Con from 0.0186973 to 0.0186973
Heightened Def Con from 0.0187034 to 0.0187034
Heightened Def Con from 0.0187034 to 0.0187034
Heightened Def Con from 0.0187173 to 0.0187173
Heightened Def Con from 0.0187234 to 0.0187234
Heightened Def Con from 0.0187234 to 0.0187234
Heightened Def Con from 0.0187372 to 0.0187373
Heightened Def Con from 0.0187434 to 0.0187434
Heightened Def Con from 0.0187434 to 0.0187434
Heightened Def Con from 0.0187572 to 0.0187572
Heightened Def Con from 0.0187634 to 0.0187634
Heightened Def Con from 0.0187634 to 0.0187635
Heightened Def Con from 0.0187772 to 0.0187772
Heightened Def Con from 0.0187835 to 0.0187835
Heightened Def Con from 0.0187835 to 0.0187835
Heightened Def Con from 0.0187972 to 0.0187972
Heightened Def Con from 0.0188035 to 0.0188035
Heightened Def Con from 0.0188035 to 0.0188035
Heightened Def Con from 0.0188171 to 0.0188172
Heightened Def Con from 0.0188235 to 0.0188235
Heightened Def Con from 0.0188235 to 0.0188235
Heightened Def Con from 0.0188371 to 0.0188371
Heightened Def Con from 0.0188435 to 0.0188435
Heightened Def Con from 0.0188436 to 0.0188436
Heightened Def Con from 0.0188571 to 0.0188571
Heightened Def Con from 0.0188636 to 0.0188636
Heightened Def Con from 0.0188636 to 0.0188636
Heightened Def Con from 0.0188771 to 0.0188771
Heightened Def Con from 0.0188836 to 0.0188836
Heightened Def Con from 0.0188836 to 0.0188836
Heightened Def Con from 0.018897 to 0.0188971
Heightened Def Con from 0.0189036 to 0.0189036
Heightened Def Con from 0.0189036 to 0.0189036
Heightened Def Con from 0.018917 to 0.018917
Heightened Def Con from 0.0189236 to 0.0189236
Heightened Def Con from 0.0189237 to 0.0189237
Heightened Def Con from 0.018937 to 0.018937
Heightened Def Con from 0.0189437 to 0.0189437
Heightened Def Con from 0.0189437 to 0.0189437
Heightened Def Con from 0.018957 to 0.018957
Heightened Def Con from 0.0189637 to 0.0189637
Heightened Def Con from 0.0189637 to 0.0189637
Heightened Def Con from 0.0189769 to 0.0189769
Heightened Def Con from 0.0189837 to 0.0189837
Heightened Def Con from 0.0189837 to 0.0189837
Heightened Def Con from 0.0189969 to 0.0189969
Heightened Def Con from 0.0190037 to 0.0190038
Heightened Def Con from 0.0190038 to 0.0190038
Heightened Def Con from 0.0190169 to 0.0190169
Heightened Def Con from 0.0190238 to 0.0190238
Heightened Def Con from 0.0190238 to 0.0190238
Heightened Def Con from 0.0190369 to 0.0190369
Heightened Def Con from 0.0190438 to 0.0190438
Heightened Def Con from 0.0190438 to 0.0190438
Heightened Def Con from 0.0190568 to 0.0190568
Heightened Def Con from 0.0190638 to 0.0190638
Heightened Def Con from 0.0190638 to 0.0190638
Heightened Def Con from 0.0190768 to 0.0190768
Heightened Def Con from 0.0190839 to 0.0190839
Heightened Def Con from 0.0190839 to 0.0190839
Heightened Def Con from 0.0190968 to 0.0190968
Heightened Def Con from 0.0191039 to 0.0191039
Heightened Def Con from 0.0191039 to 0.0191039
Heightened Def Con from 0.0191168 to 0.0191168
Heightened Def Con from 0.0191239 to 0.0191239
Heightened Def Con from 0.0191239 to 0.0191239
Heightened Def Con from 0.0191367 to 0.0191367
Heightened Def Con from 0.0191439 to 0.0191439
Heightened Def Con from 0.0191439 to 0.0191439
Heightened Def Con from 0.0191567 to 0.0191567
Heightened Def Con from 0.019164 to 0.019164
Heightened Def Con from 0.019164 to 0.019164
Heightened Def Con from 0.0191767 to 0.0191767
Heightened Def Con from 0.019184 to 0.019184
Heightened Def Con from 0.019184 to 0.019184
Heightened Def Con from 0.0191967 to 0.0191967
Heightened Def Con from 0.019204 to 0.019204
Heightened Def Con from 0.019204 to 0.019204
Heightened Def Con from 0.0192166 to 0.0192166
Heightened Def Con from 0.019224 to 0.019224
Heightened Def Con from 0.019224 to 0.0192241
Heightened Def Con from 0.0192366 to 0.0192366
Heightened Def Con from 0.0192441 to 0.0192441
Heightened Def Con from 0.0192441 to 0.0192441
Heightened Def Con from 0.0192566 to 0.0192566
Heightened Def Con from 0.0192641 to 0.0192641
Heightened Def Con from 0.0192641 to 0.0192641
Heightened Def Con from 0.0192765 to 0.0192765
Heightened Def Con from 0.0192841 to 0.0192841
Heightened Def Con from 0.0192841 to 0.0192841
Heightened Def Con from 0.0192965 to 0.0192965
Heightened Def Con from 0.0193041 to 0.0193042
Heightened Def Con from 0.0193042 to 0.0193042
Heightened Def Con from 0.0193165 to 0.0193165
Heightened Def Con from 0.0193242 to 0.0193242
Heightened Def Con from 0.0193242 to 0.0193242
Heightened Def Con from 0.0193365 to 0.0193365
Heightened Def Con from 0.0193442 to 0.0193442
Heightened Def Con from 0.0193442 to 0.0193442
Heightened Def Con from 0.0193564 to 0.0193564
Heightened Def Con from 0.0193642 to 0.0193642
Heightened Def Con from 0.0193642 to 0.0193642
Heightened Def Con from 0.0193764 to 0.0193764
Heightened Def Con from 0.0193843 to 0.0193843
Heightened Def Con from 0.0193843 to 0.0193843
Heightened Def Con from 0.0193964 to 0.0193964
Heightened Def Con from 0.0194043 to 0.0194043
Heightened Def Con from 0.0194043 to 0.0194043
Heightened Def Con from 0.0194164 to 0.0194164
Heightened Def Con from 0.0194243 to 0.0194243
Heightened Def Con from 0.0194243 to 0.0194243
Heightened Def Con from 0.0194363 to 0.0194363
Heightened Def Con from 0.0194443 to 0.0194443
Heightened Def Con from 0.0194443 to 0.0194443
Heightened Def Con from 0.0194563 to 0.0194563
Heightened Def Con from 0.0194644 to 0.0194644
Heightened Def Con from 0.0194644 to 0.0194644
Heightened Def Con from 0.0194763 to 0.0194763
Heightened Def Con from 0.0194844 to 0.0194844
Heightened Def Con from 0.0194844 to 0.0194844
Heightened Def Con from 0.0194962 to 0.0194963
Heightened Def Con from 0.0195044 to 0.0195044
Heightened Def Con from 0.0195162 to 0.0195162
Heightened Def Con from 0.0195362 to 0.0195362
Heightened Def Con from 0.0195562 to 0.0195562
Heightened Def Con from 0.0195761 to 0.0195761
Heightened Def Con from 0.019585 to 0.019585
Heightened Def Con from 0.0195961 to 0.0195961
Heightened Def Con from 0.019605 to 0.019605
Heightened Def Con from 0.0196161 to 0.0196161
Heightened Def Con from 0.019625 to 0.019625
Heightened Def Con from 0.0196361 to 0.0196361
Heightened Def Con from 0.0196451 to 0.0196451
Heightened Def Con from 0.019656 to 0.019656
Heightened Def Con from 0.0196651 to 0.0196651
Heightened Def Con from 0.019676 to 0.019676
Heightened Def Con from 0.0196851 to 0.0196851
Heightened Def Con from 0.019696 to 0.019696
Heightened Def Con from 0.0197052 to 0.0197052
Heightened Def Con from 0.0197159 to 0.019716
Heightened Def Con from 0.0197252 to 0.0197252
Heightened Def Con from 0.0197359 to 0.0197359
Heightened Def Con from 0.0197452 to 0.0197452
Heightened Def Con from 0.0197559 to 0.0197559
Heightened Def Con from 0.0197652 to 0.0197652
Heightened Def Con from 0.0197759 to 0.0197759
Heightened Def Con from 0.0197853 to 0.0197853
Heightened Def Con from 0.0197958 to 0.0197958
Heightened Def Con from 0.0198053 to 0.0198053
Heightened Def Con from 0.0198158 to 0.0198158
Heightened Def Con from 0.0198253 to 0.0198253
Heightened Def Con from 0.0198358 to 0.0198358
Heightened Def Con from 0.0198453 to 0.0198454
Heightened Def Con from 0.0198558 to 0.0198558
Heightened Def Con from 0.0198654 to 0.0198654
Heightened Def Con from 0.0198757 to 0.0198757
Heightened Def Con from 0.0198854 to 0.0198854
Heightened Def Con from 0.0198957 to 0.0198957
Heightened Def Con from 0.0199054 to 0.0199054
Heightened Def Con from 0.0199157 to 0.0199157
Heightened Def Con from 0.0199255 to 0.0199255
Heightened Def Con from 0.0199356 to 0.0199357
Heightened Def Con from 0.0199455 to 0.0199455
Heightened Def Con from 0.0199556 to 0.0199556
Heightened Def Con from 0.0199655 to 0.0199655
Heightened Def Con from 0.0199756 to 0.0199756
Heightened Def Con from 0.0199855 to 0.0199855
Heightened Def Con from 0.0199956 to 0.0199956
Heightened Def Con from 0.0200056 to 0.0200056
Heightened Def Con from 0.0200155 to 0.0200155
Heightened Def Con from 0.0200256 to 0.0200256
Heightened Def Con from 0.0200355 to 0.0200355
Heightened Def Con from 0.0200355 to 0.0200355
Heightened Def Con from 0.0200456 to 0.0200456
Heightened Def Con from 0.0200555 to 0.0200555
Heightened Def Con from 0.0200656 to 0.0200657
Heightened Def Con from 0.0200755 to 0.0200755
Heightened Def Con from 0.0200857 to 0.0200857
Heightened Def Con from 0.0200954 to 0.0200954
Heightened Def Con from 0.0201057 to 0.0201057
Heightened Def Con from 0.0201154 to 0.0201154
Heightened Def Con from 0.0201257 to 0.0201257
Heightened Def Con from 0.0201354 to 0.0201354
Heightened Def Con from 0.0201458 to 0.0201458
Heightened Def Con from 0.0201553 to 0.0201554
Heightened Def Con from 0.0201658 to 0.0201658
Heightened Def Con from 0.0201753 to 0.0201753
Heightened Def Con from 0.0201858 to 0.0201858
Heightened Def Con from 0.0201953 to 0.0201953
Heightened Def Con from 0.0202058 to 0.0202058
Heightened Def Con from 0.0202153 to 0.0202153
Heightened Def Con from 0.0202259 to 0.0202259
Heightened Def Con from 0.0202352 to 0.0202352
Heightened Def Con from 0.0202459 to 0.0202459
Heightened Def Con from 0.0202552 to 0.0202552
Heightened Def Con from 0.0202659 to 0.0202659
Heightened Def Con from 0.0202752 to 0.0202752
Heightened Def Con from 0.020286 to 0.020286
Heightened Def Con from 0.0202952 to 0.0202952
Heightened Def Con from 0.020306 to 0.020306
Heightened Def Con from 0.0203151 to 0.0203151
Heightened Def Con from 0.020326 to 0.020326
Heightened Def Con from 0.0203351 to 0.0203351
Heightened Def Con from 0.020346 to 0.020346
Heightened Def Con from 0.0203551 to 0.0203551
Heightened Def Con from 0.0203661 to 0.0203661
Heightened Def Con from 0.020375 to 0.0203751
Heightened Def Con from 0.0203861 to 0.0203861
Heightened Def Con from 0.020395 to 0.020395
Heightened Def Con from 0.0204061 to 0.0204061
Heightened Def Con from 0.020415 to 0.020415
Heightened Def Con from 0.0204261 to 0.0204261
Heightened Def Con from 0.020435 to 0.020435
Heightened Def Con from 0.0204462 to 0.0204462
Heightened Def Con from 0.0204662 to 0.0204662
Heightened Def Con from 0.0204862 to 0.0204862
Heightened Def Con from 0.0205063 to 0.0205063
Heightened Def Con from 0.0205144 to 0.0205144
Heightened Def Con from 0.0205263 to 0.0205263
Heightened Def Con from 0.0205344 to 0.0205344
Heightened Def Con from 0.0205344 to 0.0205344
Heightened Def Con from 0.0205463 to 0.0205463
Heightened Def Con from 0.0205543 to 0.0205543
Heightened Def Con from 0.0205543 to 0.0205543
Heightened Def Con from 0.0205663 to 0.0205663
Heightened Def Con from 0.0205743 to 0.0205743
Heightened Def Con from 0.0205743 to 0.0205743
Heightened Def Con from 0.0205864 to 0.0205864
Heightened Def Con from 0.0205943 to 0.0205943
Heightened Def Con from 0.0205943 to 0.0205943
Heightened Def Con from 0.0206064 to 0.0206064
Heightened Def Con from 0.0206143 to 0.0206143
Heightened Def Con from 0.0206143 to 0.0206143
Heightened Def Con from 0.0206264 to 0.0206264
Heightened Def Con from 0.0206342 to 0.0206342
Heightened Def Con from 0.0206342 to 0.0206342
Heightened Def Con from 0.0206464 to 0.0206464
Heightened Def Con from 0.0206542 to 0.0206542
Heightened Def Con from 0.0206542 to 0.0206542
Heightened Def Con from 0.0206665 to 0.0206665
Heightened Def Con from 0.0206742 to 0.0206742
Heightened Def Con from 0.0206742 to 0.0206742
Heightened Def Con from 0.0206865 to 0.0206865
Heightened Def Con from 0.0206941 to 0.0206942
Heightened Def Con from 0.0206942 to 0.0206942
Heightened Def Con from 0.0207065 to 0.0207065
Heightened Def Con from 0.0207141 to 0.0207141
Heightened Def Con from 0.0207141 to 0.0207141
Heightened Def Con from 0.0207265 to 0.0207266
Heightened Def Con from 0.0207341 to 0.0207341
Heightened Def Con from 0.0207341 to 0.0207341
Heightened Def Con from 0.0207466 to 0.0207466
Heightened Def Con from 0.0207541 to 0.0207541
Heightened Def Con from 0.0207541 to 0.0207541
Heightened Def Con from 0.0207666 to 0.0207666
Heightened Def Con from 0.020774 to 0.020774
Heightened Def Con from 0.020774 to 0.0207741
Heightened Def Con from 0.0207866 to 0.0207866
Heightened Def Con from 0.0207866 to 0.0207866
Heightened Def Con from 0.020794 to 0.020794
Heightened Def Con from 0.020794 to 0.020794
Heightened Def Con from 0.0208067 to 0.0208067
Heightened Def Con from 0.020814 to 0.020814
Heightened Def Con from 0.020814 to 0.020814
Heightened Def Con from 0.0208267 to 0.0208267
Heightened Def Con from 0.020834 to 0.020834
Heightened Def Con from 0.020834 to 0.020834
Heightened Def Con from 0.0208467 to 0.0208467
Heightened Def Con from 0.0208539 to 0.0208539
Heightened Def Con from 0.0208539 to 0.0208539
Heightened Def Con from 0.0208667 to 0.0208667
Heightened Def Con from 0.0208739 to 0.0208739
Heightened Def Con from 0.0208739 to 0.0208739
Heightened Def Con from 0.0208868 to 0.0208868
Heightened Def Con from 0.0208939 to 0.0208939
Heightened Def Con from 0.0208939 to 0.0208939
Heightened Def Con from 0.0209068 to 0.0209068
Heightened Def Con from 0.0209139 to 0.0209139
Heightened Def Con from 0.0209139 to 0.0209139
Heightened Def Con from 0.0209268 to 0.0209268
Heightened Def Con from 0.0209338 to 0.0209338
Heightened Def Con from 0.0209338 to 0.0209338
Heightened Def Con from 0.0209468 to 0.0209468
Heightened Def Con from 0.0209538 to 0.0209538
Heightened Def Con from 0.0209538 to 0.0209538
Heightened Def Con from 0.0209669 to 0.0209669
Heightened Def Con from 0.0209738 to 0.0209738
Heightened Def Con from 0.0209738 to 0.0209738
Heightened Def Con from 0.0209869 to 0.0209869
Heightened Def Con from 0.0209938 to 0.0209938
Heightened Def Con from 0.0209938 to 0.0209938

Date: Wed Mar 02 05:30:10 2022
Total elapsed time: 685.257 seconds.

tnom = 27
temp = 27
method = modified trap
totiter = 11772354
traniter = 11772261
tranpoints = 4583959
accept = 3337148
rejected = 1250058
matrix size = 125
fillins = 202
solver = Alternate
Thread vector: 19.4/14.1[4] 10.3/6.5[4] 2.8/2.0[4] 1.4/1.6[1]  2592/500
Matrix Compiler1: 23.81 KB object code size  6.0/3.3/[2.5]
Matrix Compiler2: 15.67 KB object code size  1.5/2.0/[1.0]

