Circuit: * C:\Users\ycay\Desktop\FullBridge_Modulations\Transformless_SP_Inverter\FullBridge_LTspice\UJ4C075018K4S\Bipolar_UJ4C075018K4S_DeadTime.asc

Instance "m:u4:m1:2": Length shorter than recommended for a level 3 MOSFET.
Instance "m:u4:m1:1": Length shorter than recommended for a level 3 MOSFET.
Instance "m:u3:m1:2": Length shorter than recommended for a level 3 MOSFET.
Instance "m:u3:m1:1": Length shorter than recommended for a level 3 MOSFET.
Instance "m:u2:m1:2": Length shorter than recommended for a level 3 MOSFET.
Instance "m:u2:m1:1": Length shorter than recommended for a level 3 MOSFET.
Instance "m:u1:m1:2": Length shorter than recommended for a level 3 MOSFET.
Instance "m:u1:m1:1": Length shorter than recommended for a level 3 MOSFET.
Direct Newton iteration for .op point succeeded.
Heightened Def Con from 5.11819e-006 to 5.12019e-006
Heightened Def Con from 5.51677e-006 to 5.52177e-006
Heightened Def Con from 1.51024e-005 to 1.51064e-005
Heightened Def Con from 1.51163e-005 to 1.51203e-005
Heightened Def Con from 2.55444e-005 to 2.55494e-005
Heightened Def Con from 3.50752e-005 to 3.50792e-005
Heightened Def Con from 3.5088e-005 to 3.5092e-005
Heightened Def Con from 4.55722e-005 to 4.55772e-005
Heightened Def Con from 5.50476e-005 to 5.50516e-005
Heightened Def Con from 5.50593e-005 to 5.50633e-005
Heightened Def Con from 6.55995e-005 to 6.56045e-005
Heightened Def Con from 8.56267e-005 to 8.56317e-005
Heightened Def Con from 9.53789e-005 to 9.53839e-005
Heightened Def Con from 0.000105653 to 0.000105658
Heightened Def Con from 0.000115354 to 0.000115359
Heightened Def Con from 0.000125681 to 0.000125686
Heightened Def Con from 0.000135326 to 0.000135331
Heightened Def Con from 0.00014571 to 0.000145715
Heightened Def Con from 0.000155299 to 0.000155304
Heightened Def Con from 0.000165736 to 0.000165741
Heightened Def Con from 0.000175273 to 0.000175278
Heightened Def Con from 0.000185765 to 0.00018577
Heightened Def Con from 0.000195243 to 0.000195248
Heightened Def Con from 0.000205791 to 0.000205796
Heightened Def Con from 0.000215217 to 0.000215222
Heightened Def Con from 0.000225819 to 0.000225824
Heightened Def Con from 0.000235189 to 0.000235194
Heightened Def Con from 0.000245845 to 0.00024585
Heightened Def Con from 0.000255162 to 0.000255167
Heightened Def Con from 0.000265873 to 0.000265878
Heightened Def Con from 0.000275135 to 0.00027514
Heightened Def Con from 0.0002859 to 0.000285905
Heightened Def Con from 0.000295107 to 0.000295112
Heightened Def Con from 0.000305928 to 0.000305933
Heightened Def Con from 0.000315081 to 0.000315086
Heightened Def Con from 0.000325955 to 0.00032596
Heightened Def Con from 0.000335054 to 0.000335059
Heightened Def Con from 0.000345982 to 0.000345987
Heightened Def Con from 0.000355025 to 0.00035503
Heightened Def Con from 0.000366009 to 0.000366014
Heightened Def Con from 0.000374997 to 0.000375002
Heightened Def Con from 0.000386036 to 0.000386041
Heightened Def Con from 0.000394972 to 0.000394977
Heightened Def Con from 0.000406064 to 0.000406069
Heightened Def Con from 0.000414945 to 0.000414951
Heightened Def Con from 0.000426091 to 0.000426096
Heightened Def Con from 0.000446118 to 0.000446123
Heightened Def Con from 0.000466145 to 0.00046615
Heightened Def Con from 0.000486172 to 0.000486177
Heightened Def Con from 0.000506201 to 0.000506206
Heightened Def Con from 0.000514422 to 0.000514437
Heightened Def Con from 0.000526226 to 0.000526231
Heightened Def Con from 0.000534394 to 0.0005344
Heightened Def Con from 0.000534403 to 0.000534407
Heightened Def Con from 0.000546254 to 0.000546259
Heightened Def Con from 0.000554369 to 0.000554373
Heightened Def Con from 0.000554379 to 0.000554383
Heightened Def Con from 0.00056628 to 0.000566285
Heightened Def Con from 0.000574341 to 0.000574345
Heightened Def Con from 0.000574351 to 0.000574355
Heightened Def Con from 0.000586307 to 0.000586312
Heightened Def Con from 0.000594314 to 0.000594318
Heightened Def Con from 0.000594325 to 0.000594329
Heightened Def Con from 0.000606334 to 0.000606339
Heightened Def Con from 0.000614287 to 0.000614291
Heightened Def Con from 0.000614298 to 0.000614302
Heightened Def Con from 0.000626361 to 0.000626366
Heightened Def Con from 0.000634262 to 0.000634266
Heightened Def Con from 0.000634272 to 0.000634276
Heightened Def Con from 0.000646388 to 0.000646393
Heightened Def Con from 0.000654234 to 0.000654238
Heightened Def Con from 0.000654245 to 0.000654249
Heightened Def Con from 0.000666415 to 0.00066642
Heightened Def Con from 0.000674207 to 0.000674211
Heightened Def Con from 0.000674218 to 0.000674222
Heightened Def Con from 0.000686441 to 0.000686446
Heightened Def Con from 0.000694181 to 0.000694185
Heightened Def Con from 0.000694192 to 0.000694196
Heightened Def Con from 0.000706469 to 0.000706474
Heightened Def Con from 0.000714155 to 0.000714159
Heightened Def Con from 0.000714166 to 0.00071417
Heightened Def Con from 0.000726498 to 0.000726503
Heightened Def Con from 0.000734126 to 0.00073413
Heightened Def Con from 0.000734137 to 0.000734141
Heightened Def Con from 0.000746522 to 0.000746527
Heightened Def Con from 0.0007541 to 0.000754104
Heightened Def Con from 0.000754112 to 0.000754116
Heightened Def Con from 0.000766551 to 0.000766556
Heightened Def Con from 0.000774074 to 0.000774078
Heightened Def Con from 0.000774086 to 0.00077409
Heightened Def Con from 0.000786575 to 0.00078658
Heightened Def Con from 0.000794046 to 0.00079405
Heightened Def Con from 0.000794058 to 0.000794062
Heightened Def Con from 0.000806602 to 0.000806607
Heightened Def Con from 0.000814021 to 0.000814025
Heightened Def Con from 0.000814033 to 0.000814037
Heightened Def Con from 0.000826628 to 0.000826633
Heightened Def Con from 0.000833995 to 0.000833999
Heightened Def Con from 0.000834006 to 0.00083401
Heightened Def Con from 0.000846655 to 0.00084666
Heightened Def Con from 0.000853968 to 0.000853972
Heightened Def Con from 0.00085398 to 0.000853984
Heightened Def Con from 0.000866681 to 0.000866686
Heightened Def Con from 0.000873942 to 0.000873946
Heightened Def Con from 0.000873953 to 0.000873957
Heightened Def Con from 0.000886708 to 0.000886713
Heightened Def Con from 0.000893916 to 0.00089392
Heightened Def Con from 0.000893928 to 0.000893932
Heightened Def Con from 0.000906734 to 0.000906739
Heightened Def Con from 0.000913889 to 0.000913893
Heightened Def Con from 0.000913901 to 0.000913905
Heightened Def Con from 0.00092676 to 0.000926765
Heightened Def Con from 0.000933863 to 0.000933867
Heightened Def Con from 0.000933875 to 0.000933879
Heightened Def Con from 0.000946776 to 0.000946777
Heightened Def Con from 0.000946786 to 0.000946791
Heightened Def Con from 0.000953837 to 0.000953841
Heightened Def Con from 0.000953849 to 0.000953853
Heightened Def Con from 0.000966813 to 0.000966818
Heightened Def Con from 0.000973811 to 0.000973815
Heightened Def Con from 0.000973823 to 0.000973827
Heightened Def Con from 0.000986839 to 0.000986844
Heightened Def Con from 0.000993785 to 0.000993789
Heightened Def Con from 0.000993797 to 0.000993801
Heightened Def Con from 0.00100686 to 0.00100687
Heightened Def Con from 0.00101376 to 0.00101376
Heightened Def Con from 0.00101377 to 0.00101377
Heightened Def Con from 0.00102689 to 0.0010269
Heightened Def Con from 0.00103373 to 0.00103374
Heightened Def Con from 0.00103375 to 0.00103375
Heightened Def Con from 0.00104692 to 0.00104692
Heightened Def Con from 0.00105371 to 0.00105371
Heightened Def Con from 0.00105372 to 0.00105373
Heightened Def Con from 0.00106694 to 0.00106695
Heightened Def Con from 0.00107368 to 0.00107368
Heightened Def Con from 0.00107369 to 0.0010737
Heightened Def Con from 0.00108697 to 0.00108697
Heightened Def Con from 0.00109366 to 0.00109366
Heightened Def Con from 0.00109367 to 0.00109367
Heightened Def Con from 0.001107 to 0.001107
Heightened Def Con from 0.00111363 to 0.00111363
Heightened Def Con from 0.00111364 to 0.00111365
Heightened Def Con from 0.00112702 to 0.00112702
Heightened Def Con from 0.0011336 to 0.00113361
Heightened Def Con from 0.00113362 to 0.00113362
Heightened Def Con from 0.00114705 to 0.00114705
Heightened Def Con from 0.00115358 to 0.00115358
Heightened Def Con from 0.00115359 to 0.00115359
Heightened Def Con from 0.00116707 to 0.00116708
Heightened Def Con from 0.00117355 to 0.00117356
Heightened Def Con from 0.00117357 to 0.00117357
Heightened Def Con from 0.0011871 to 0.0011871
Heightened Def Con from 0.00119353 to 0.00119353
Heightened Def Con from 0.00119354 to 0.00119354
Heightened Def Con from 0.00120712 to 0.00120713
Heightened Def Con from 0.0012135 to 0.00121351
Heightened Def Con from 0.00121351 to 0.00121352
Heightened Def Con from 0.00122715 to 0.00122715
Heightened Def Con from 0.00123348 to 0.00123348
Heightened Def Con from 0.00123349 to 0.00123349
Heightened Def Con from 0.00124717 to 0.00124718
Heightened Def Con from 0.00125345 to 0.00125346
Heightened Def Con from 0.00125346 to 0.00125347
Heightened Def Con from 0.0012672 to 0.0012672
Heightened Def Con from 0.00127343 to 0.00127343
Heightened Def Con from 0.00127344 to 0.00127344
Heightened Def Con from 0.00128722 to 0.00128723
Heightened Def Con from 0.0012934 to 0.00129341
Heightened Def Con from 0.00129341 to 0.00129342
Heightened Def Con from 0.00130725 to 0.00130725
Heightened Def Con from 0.00131337 to 0.00131338
Heightened Def Con from 0.00131339 to 0.00131339
Heightened Def Con from 0.00132727 to 0.00132728
Heightened Def Con from 0.00133335 to 0.00133336
Heightened Def Con from 0.00133336 to 0.00133337
Heightened Def Con from 0.0013473 to 0.0013473
Heightened Def Con from 0.00135333 to 0.00135333
Heightened Def Con from 0.00135334 to 0.00135334
Heightened Def Con from 0.00136732 to 0.00136733
Heightened Def Con from 0.0013733 to 0.00137331
Heightened Def Con from 0.00137331 to 0.00137332
Heightened Def Con from 0.00138735 to 0.00138736
Heightened Def Con from 0.00139328 to 0.00139328
Heightened Def Con from 0.00139329 to 0.00139329
Heightened Def Con from 0.00140737 to 0.00140738
Heightened Def Con from 0.00141325 to 0.00141326
Heightened Def Con from 0.00141326 to 0.00141327
Heightened Def Con from 0.0014274 to 0.00142741
Heightened Def Con from 0.00143323 to 0.00143323
Heightened Def Con from 0.00143324 to 0.00143324
Heightened Def Con from 0.00144742 to 0.00144742
Heightened Def Con from 0.0014532 to 0.00145321
Heightened Def Con from 0.00145321 to 0.00145322
Heightened Def Con from 0.00146745 to 0.00146745
Heightened Def Con from 0.00147318 to 0.00147318
Heightened Def Con from 0.00147319 to 0.00147319
Heightened Def Con from 0.00148747 to 0.00148748
Heightened Def Con from 0.00149315 to 0.00149316
Heightened Def Con from 0.00149317 to 0.00149317
Heightened Def Con from 0.0015075 to 0.0015075
Heightened Def Con from 0.00151313 to 0.00151313
Heightened Def Con from 0.00151314 to 0.00151315
Heightened Def Con from 0.00152752 to 0.00152753
Heightened Def Con from 0.00153311 to 0.00153311
Heightened Def Con from 0.00153312 to 0.00153312
Heightened Def Con from 0.00154755 to 0.00154755
Heightened Def Con from 0.00155308 to 0.00155308
Heightened Def Con from 0.00155309 to 0.0015531
Heightened Def Con from 0.00156757 to 0.00156757
Heightened Def Con from 0.00157306 to 0.00157306
Heightened Def Con from 0.00157307 to 0.00157307
Heightened Def Con from 0.00158759 to 0.0015876
Heightened Def Con from 0.00159303 to 0.00159304
Heightened Def Con from 0.00159304 to 0.00159305
Heightened Def Con from 0.00160762 to 0.00160762
Heightened Def Con from 0.00161301 to 0.00161301
Heightened Def Con from 0.00161302 to 0.00161303
Heightened Def Con from 0.00162764 to 0.00162765
Heightened Def Con from 0.00163299 to 0.00163299
Heightened Def Con from 0.001633 to 0.001633
Heightened Def Con from 0.00164766 to 0.00164767
Heightened Def Con from 0.00165296 to 0.00165297
Heightened Def Con from 0.00165297 to 0.00165298
Heightened Def Con from 0.00166769 to 0.00166769
Heightened Def Con from 0.00167294 to 0.00167294
Heightened Def Con from 0.00167295 to 0.00167295
Heightened Def Con from 0.00168771 to 0.00168772
Heightened Def Con from 0.00169291 to 0.00169292
Heightened Def Con from 0.00169293 to 0.00169293
Heightened Def Con from 0.00170774 to 0.00170774
Heightened Def Con from 0.00171289 to 0.00171289
Heightened Def Con from 0.0017129 to 0.00171291
Heightened Def Con from 0.00172776 to 0.00172776
Heightened Def Con from 0.00173287 to 0.00173287
Heightened Def Con from 0.00173288 to 0.00173288
Heightened Def Con from 0.00174778 to 0.00174779
Heightened Def Con from 0.00175284 to 0.00175285
Heightened Def Con from 0.00175286 to 0.00175286
Heightened Def Con from 0.00176781 to 0.00176781
Heightened Def Con from 0.00177282 to 0.00177282
Heightened Def Con from 0.00177283 to 0.00177284
Heightened Def Con from 0.00178783 to 0.00178784
Heightened Def Con from 0.0017928 to 0.0017928
Heightened Def Con from 0.00179281 to 0.00179281
Heightened Def Con from 0.00180785 to 0.00180786
Heightened Def Con from 0.00181277 to 0.00181278
Heightened Def Con from 0.00181279 to 0.00181279
Heightened Def Con from 0.00182787 to 0.00182788
Heightened Def Con from 0.00183275 to 0.00183276
Heightened Def Con from 0.00183276 to 0.00183277
Heightened Def Con from 0.0018479 to 0.0018479
Heightened Def Con from 0.00185273 to 0.00185273
Heightened Def Con from 0.00185274 to 0.00185274
Heightened Def Con from 0.00186792 to 0.00186793
Heightened Def Con from 0.00187271 to 0.00187271
Heightened Def Con from 0.00187272 to 0.00187272
Heightened Def Con from 0.00188794 to 0.00188795
Heightened Def Con from 0.00189268 to 0.00189269
Heightened Def Con from 0.0018927 to 0.0018927
Heightened Def Con from 0.00190797 to 0.00190797
Heightened Def Con from 0.00191266 to 0.00191266
Heightened Def Con from 0.00191267 to 0.00191268
Heightened Def Con from 0.00192799 to 0.00192799
Heightened Def Con from 0.00193264 to 0.00193264
Heightened Def Con from 0.00193265 to 0.00193266
Heightened Def Con from 0.00194801 to 0.00194802
Heightened Def Con from 0.00195262 to 0.00195262
Heightened Def Con from 0.00195263 to 0.00195263
Heightened Def Con from 0.00196803 to 0.00196804
Heightened Def Con from 0.00197259 to 0.0019726
Heightened Def Con from 0.00197261 to 0.00197261
Heightened Def Con from 0.00198806 to 0.00198806
Heightened Def Con from 0.00199257 to 0.00199257
Heightened Def Con from 0.00199258 to 0.00199259
Heightened Def Con from 0.00200808 to 0.00200808
Heightened Def Con from 0.00201255 to 0.00201255
Heightened Def Con from 0.00201256 to 0.00201257
Heightened Def Con from 0.0020281 to 0.0020281
Heightened Def Con from 0.00203253 to 0.00203253
Heightened Def Con from 0.00203254 to 0.00203254
Heightened Def Con from 0.00204812 to 0.00204813
Heightened Def Con from 0.0020525 to 0.00205251
Heightened Def Con from 0.00205252 to 0.00205252
Heightened Def Con from 0.00206814 to 0.00206815
Heightened Def Con from 0.00207248 to 0.00207249
Heightened Def Con from 0.0020725 to 0.0020725
Heightened Def Con from 0.00208817 to 0.00208817
Heightened Def Con from 0.00209246 to 0.00209247
Heightened Def Con from 0.00209247 to 0.00209248
Heightened Def Con from 0.00210819 to 0.00210819
Heightened Def Con from 0.00211244 to 0.00211244
Heightened Def Con from 0.00211245 to 0.00211246
Heightened Def Con from 0.00212821 to 0.00212821
Heightened Def Con from 0.00213242 to 0.00213242
Heightened Def Con from 0.00213243 to 0.00213244
Heightened Def Con from 0.00214823 to 0.00214824
Heightened Def Con from 0.0021524 to 0.0021524
Heightened Def Con from 0.00215241 to 0.00215242
Heightened Def Con from 0.00216825 to 0.00216826
Heightened Def Con from 0.00217238 to 0.00217238
Heightened Def Con from 0.00217239 to 0.00217239
Heightened Def Con from 0.00218827 to 0.00218828
Heightened Def Con from 0.00219235 to 0.00219236
Heightened Def Con from 0.00219237 to 0.00219237
Heightened Def Con from 0.0022083 to 0.0022083
Heightened Def Con from 0.00221233 to 0.00221234
Heightened Def Con from 0.00221235 to 0.00221235
Heightened Def Con from 0.00222832 to 0.00222832
Heightened Def Con from 0.00223231 to 0.00223232
Heightened Def Con from 0.00223233 to 0.00223233
Heightened Def Con from 0.00224834 to 0.00224834
Heightened Def Con from 0.00225229 to 0.0022523
Heightened Def Con from 0.00225231 to 0.00225231
Heightened Def Con from 0.00226836 to 0.00226836
Heightened Def Con from 0.00227227 to 0.00227228
Heightened Def Con from 0.00227228 to 0.00227229
Heightened Def Con from 0.00228838 to 0.00228838
Heightened Def Con from 0.00229225 to 0.00229225
Heightened Def Con from 0.00229226 to 0.00229227
Heightened Def Con from 0.0023084 to 0.0023084
Heightened Def Con from 0.00231223 to 0.00231223
Heightened Def Con from 0.00231224 to 0.00231225
Heightened Def Con from 0.00231261 to 0.00231261
Heightened Def Con from 0.00232842 to 0.00232843
Heightened Def Con from 0.00233221 to 0.00233221
Heightened Def Con from 0.00233222 to 0.00233223
Heightened Def Con from 0.00234844 to 0.00234844
Heightened Def Con from 0.00235219 to 0.00235219
Heightened Def Con from 0.0023522 to 0.00235221
Heightened Def Con from 0.00236846 to 0.00236846
Heightened Def Con from 0.00237217 to 0.00237217
Heightened Def Con from 0.00237218 to 0.00237219
Heightened Def Con from 0.00238848 to 0.00238848
Heightened Def Con from 0.00239215 to 0.00239215
Heightened Def Con from 0.00239216 to 0.00239217
Heightened Def Con from 0.0024085 to 0.0024085
Heightened Def Con from 0.00241213 to 0.00241213
Heightened Def Con from 0.00241214 to 0.00241215
Heightened Def Con from 0.00242852 to 0.00242853
Heightened Def Con from 0.00243211 to 0.00243211
Heightened Def Con from 0.00243212 to 0.00243213
Heightened Def Con from 0.00244854 to 0.00244855
Heightened Def Con from 0.00245209 to 0.00245209
Heightened Def Con from 0.0024521 to 0.00245211
Heightened Def Con from 0.00246856 to 0.00246856
Heightened Def Con from 0.00247207 to 0.00247207
Heightened Def Con from 0.00247208 to 0.00247209
Heightened Def Con from 0.00248858 to 0.00248858
Heightened Def Con from 0.00249205 to 0.00249206
Heightened Def Con from 0.00249207 to 0.00249207
Heightened Def Con from 0.0025086 to 0.0025086
Heightened Def Con from 0.00251203 to 0.00251204
Heightened Def Con from 0.00251205 to 0.00251205
Heightened Def Con from 0.00252862 to 0.00252862
Heightened Def Con from 0.00253201 to 0.00253202
Heightened Def Con from 0.00253203 to 0.00253203
Heightened Def Con from 0.00254864 to 0.00254864
Heightened Def Con from 0.00255199 to 0.002552
Heightened Def Con from 0.00255201 to 0.00255201
Heightened Def Con from 0.00256866 to 0.00256866
Heightened Def Con from 0.00257197 to 0.00257198
Heightened Def Con from 0.00257199 to 0.00257199
Heightened Def Con from 0.00258868 to 0.00258868
Heightened Def Con from 0.00259196 to 0.00259196
Heightened Def Con from 0.00259197 to 0.00259197
Heightened Def Con from 0.00260869 to 0.0026087
Heightened Def Con from 0.00261194 to 0.00261194
Heightened Def Con from 0.00261195 to 0.00261195
Heightened Def Con from 0.00262871 to 0.00262872
Heightened Def Con from 0.00263192 to 0.00263192
Heightened Def Con from 0.00263193 to 0.00263194
Heightened Def Con from 0.00264873 to 0.00264874
Heightened Def Con from 0.0026519 to 0.0026519
Heightened Def Con from 0.00265191 to 0.00265192
Heightened Def Con from 0.00266875 to 0.00266875
Heightened Def Con from 0.00267188 to 0.00267189
Heightened Def Con from 0.0026719 to 0.0026719
Heightened Def Con from 0.00268877 to 0.00268877
Heightened Def Con from 0.00269186 to 0.00269187
Heightened Def Con from 0.00269188 to 0.00269188
Heightened Def Con from 0.00270879 to 0.00270879
Heightened Def Con from 0.00271184 to 0.00271185
Heightened Def Con from 0.00271186 to 0.00271186
Heightened Def Con from 0.00272881 to 0.00272881
Heightened Def Con from 0.00273183 to 0.00273183
Heightened Def Con from 0.00273184 to 0.00273184
Heightened Def Con from 0.00274882 to 0.00274883
Heightened Def Con from 0.00275181 to 0.00275181
Heightened Def Con from 0.00275182 to 0.00275183
Heightened Def Con from 0.00276884 to 0.00276884
Heightened Def Con from 0.00277179 to 0.0027718
Heightened Def Con from 0.00277181 to 0.00277181
Heightened Def Con from 0.00278886 to 0.00278886
Heightened Def Con from 0.00279178 to 0.00279178
Heightened Def Con from 0.00279179 to 0.00279179
Heightened Def Con from 0.00280888 to 0.00280888
Heightened Def Con from 0.00281176 to 0.00281176
Heightened Def Con from 0.00281177 to 0.00281177
Heightened Def Con from 0.00282849 to 0.00282849
Heightened Def Con from 0.00282889 to 0.0028289
Heightened Def Con from 0.00283174 to 0.00283174
Heightened Def Con from 0.00283175 to 0.00283176
Heightened Def Con from 0.00284851 to 0.00284851
Heightened Def Con from 0.00284891 to 0.00284891
Heightened Def Con from 0.00285172 to 0.00285173
Heightened Def Con from 0.00285174 to 0.00285174
Heightened Def Con from 0.00286853 to 0.00286853
Heightened Def Con from 0.00286893 to 0.00286893
Heightened Def Con from 0.00287171 to 0.00287171
Heightened Def Con from 0.00287172 to 0.00287172
Heightened Def Con from 0.00288854 to 0.00288854
Heightened Def Con from 0.00288894 to 0.00288895
Heightened Def Con from 0.00289169 to 0.00289169
Heightened Def Con from 0.0028917 to 0.00289171
Heightened Def Con from 0.00290856 to 0.00290856
Heightened Def Con from 0.00290896 to 0.00290896
Heightened Def Con from 0.00291167 to 0.00291168
Heightened Def Con from 0.00291169 to 0.00291169
Heightened Def Con from 0.00292857 to 0.00292858
Heightened Def Con from 0.00292897 to 0.00292898
Heightened Def Con from 0.00293165 to 0.00293166
Heightened Def Con from 0.00293167 to 0.00293167
Heightened Def Con from 0.00294859 to 0.00294859
Heightened Def Con from 0.00294899 to 0.002949
Heightened Def Con from 0.00295164 to 0.00295164
Heightened Def Con from 0.00295165 to 0.00295166
Heightened Def Con from 0.00296861 to 0.00296861
Heightened Def Con from 0.00296901 to 0.00296901
Heightened Def Con from 0.00297162 to 0.00297163
Heightened Def Con from 0.00297164 to 0.00297164
Heightened Def Con from 0.00298863 to 0.00298863
Heightened Def Con from 0.00298903 to 0.00298903
Heightened Def Con from 0.00299161 to 0.00299161
Heightened Def Con from 0.00299162 to 0.00299162
Heightened Def Con from 0.00300864 to 0.00300864
Heightened Def Con from 0.00300904 to 0.00300905
Heightened Def Con from 0.00301159 to 0.00301159
Heightened Def Con from 0.0030116 to 0.00301161
Heightened Def Con from 0.00302866 to 0.00302866
Heightened Def Con from 0.00302906 to 0.00302906
Heightened Def Con from 0.00303158 to 0.00303158
Heightened Def Con from 0.00303159 to 0.00303159
Heightened Def Con from 0.00304867 to 0.00304868
Heightened Def Con from 0.00304907 to 0.00304908
Heightened Def Con from 0.00305156 to 0.00305156
Heightened Def Con from 0.00305157 to 0.00305158
Heightened Def Con from 0.00306869 to 0.00306869
Heightened Def Con from 0.00306909 to 0.00306909
Heightened Def Con from 0.00307154 to 0.00307155
Heightened Def Con from 0.00307156 to 0.00307156
Heightened Def Con from 0.0030887 to 0.0030887
Heightened Def Con from 0.0030891 to 0.00308911
Heightened Def Con from 0.00309153 to 0.00309153
Heightened Def Con from 0.00309154 to 0.00309155
Heightened Def Con from 0.00310872 to 0.00310872
Heightened Def Con from 0.00310912 to 0.00310912
Heightened Def Con from 0.00311151 to 0.00311152
Heightened Def Con from 0.00311153 to 0.00311153
Heightened Def Con from 0.00312873 to 0.00312874
Heightened Def Con from 0.00312913 to 0.00312914
Heightened Def Con from 0.0031315 to 0.0031315
Heightened Def Con from 0.00313151 to 0.00313151
Heightened Def Con from 0.00314875 to 0.00314875
Heightened Def Con from 0.00314915 to 0.00314916
Heightened Def Con from 0.00315148 to 0.00315149
Heightened Def Con from 0.0031515 to 0.0031515
Heightened Def Con from 0.00316876 to 0.00316877
Heightened Def Con from 0.00316916 to 0.00316917
Heightened Def Con from 0.00317147 to 0.00317147
Heightened Def Con from 0.00317148 to 0.00317148
Heightened Def Con from 0.00318878 to 0.00318878
Heightened Def Con from 0.00318918 to 0.00318918
Heightened Def Con from 0.00319145 to 0.00319146
Heightened Def Con from 0.00319147 to 0.00319147
Heightened Def Con from 0.00320879 to 0.0032088
Heightened Def Con from 0.00320919 to 0.0032092
Heightened Def Con from 0.00321144 to 0.00321144
Heightened Def Con from 0.00321145 to 0.00321145
Heightened Def Con from 0.00322881 to 0.00322881
Heightened Def Con from 0.00322921 to 0.00322921
Heightened Def Con from 0.00323142 to 0.00323143
Heightened Def Con from 0.00323144 to 0.00323144
Heightened Def Con from 0.00324882 to 0.00324883
Heightened Def Con from 0.00324922 to 0.00324923
Heightened Def Con from 0.00325141 to 0.00325141
Heightened Def Con from 0.00325142 to 0.00325143
Heightened Def Con from 0.00326884 to 0.00326884
Heightened Def Con from 0.00326924 to 0.00326924
Heightened Def Con from 0.00327139 to 0.0032714
Heightened Def Con from 0.00327141 to 0.00327141
Heightened Def Con from 0.00328885 to 0.00328885
Heightened Def Con from 0.00328925 to 0.00328925
Heightened Def Con from 0.00329138 to 0.00329138
Heightened Def Con from 0.00329139 to 0.0032914
Heightened Def Con from 0.00330887 to 0.00330887
Heightened Def Con from 0.00330927 to 0.00330927
Heightened Def Con from 0.00331137 to 0.00331137
Heightened Def Con from 0.00331138 to 0.00331138
Heightened Def Con from 0.00332888 to 0.00332888
Heightened Def Con from 0.00332928 to 0.00332928
Heightened Def Con from 0.00333135 to 0.00333136
Heightened Def Con from 0.00333137 to 0.00333137
Heightened Def Con from 0.0033489 to 0.0033489
Heightened Def Con from 0.0033493 to 0.0033493
Heightened Def Con from 0.00335134 to 0.00335134
Heightened Def Con from 0.00335135 to 0.00335136
Heightened Def Con from 0.00336891 to 0.00336891
Heightened Def Con from 0.00336931 to 0.00336931
Heightened Def Con from 0.00337132 to 0.00337133
Heightened Def Con from 0.00337134 to 0.00337134
Heightened Def Con from 0.00338892 to 0.00338892
Heightened Def Con from 0.00338932 to 0.00338933
Heightened Def Con from 0.00339131 to 0.00339132
Heightened Def Con from 0.00339133 to 0.00339133
Heightened Def Con from 0.00340893 to 0.00340894
Heightened Def Con from 0.00340934 to 0.00340934
Heightened Def Con from 0.0034113 to 0.0034113
Heightened Def Con from 0.00341131 to 0.00341132
Heightened Def Con from 0.00342895 to 0.00342895
Heightened Def Con from 0.00342935 to 0.00342935
Heightened Def Con from 0.00343128 to 0.00343129
Heightened Def Con from 0.0034313 to 0.0034313
Heightened Def Con from 0.00344896 to 0.00344896
Heightened Def Con from 0.00344936 to 0.00344936
Heightened Def Con from 0.00345127 +++++++to 0.00345127
Heightened Def Con from 0.00345127 +to 0.00345127
Heightened Def Con from 0.00345127 +++++++++++++++++++to 0.00345127
Heightened Def Con from 0.00345127 ++++++++++++++++++++++to 0.00345128
Heightened Def Con from 0.00345129 to 0.0034513
Heightened Def Con from 0.00346897 to 0.00346898
Heightened Def Con from 0.00346937 to 0.00346938
Heightened Def Con from 0.00347126 +to 0.00347126
Heightened Def Con from 0.00347126 ++to 0.00347126
Heightened Def Con from 0.00347126 to 0.00347126
Heightened Def Con from 0.00347126 to 0.00347126
Heightened Def Con from 0.00347126 +++++++++++++++++++++++++to 0.00347127
Heightened Def Con from 0.00347127 to 0.00347129
Heightened Def Con from 0.00348898 to 0.00348899
Heightened Def Con from 0.00348938 to 0.00348939
Heightened Def Con from 0.00349125 ++++++++++++++++++++to 0.00349125
Heightened Def Con from 0.00349125 +++++++++++++++++++++++++to 0.00349126
Heightened Def Con from 0.00349126 to 0.00349127
Heightened Def Con from 0.003509 to 0.003509
Heightened Def Con from 0.0035094 to 0.0035094
Heightened Def Con from 0.00351123 ++++to 0.00351123
Heightened Def Con from 0.00351123 to 0.00351123
Heightened Def Con from 0.00351123 +++++++++++++++++++++++++to 0.00351123
Heightened Def Con from 0.00351123 +++++++++++++++++++++++to 0.00351123
Heightened Def Con from 0.00351123 ++++++++++++++++++++++++++to 0.00351124
Heightened Def Con from 0.00351125 to 0.00351127
Heightened Def Con from 0.00352901 to 0.00352901
Heightened Def Con from 0.00352941 to 0.00352941
Heightened Def Con from 0.00353122 to 0.00353122
Heightened Def Con from 0.00353122 to 0.00353122
Heightened Def Con from 0.00353122 ++++++++++++++++++++++to 0.00353122
Heightened Def Con from 0.00353122 ++++to 0.00353122
Heightened Def Con from 0.00353122 ++++++++++++++++++++++++++to 0.00353123
Heightened Def Con from 0.00353124 to 0.00353126
Heightened Def Con from 0.00354902 to 0.00354902
Heightened Def Con from 0.00354942 to 0.00354943
Heightened Def Con from 0.00355121 to 0.00355121
Heightened Def Con from 0.00355121 +to 0.00355121
Heightened Def Con from 0.00355121 to 0.00355121
Heightened Def Con from 0.00355121 +to 0.00355121
Heightened Def Con from 0.00355121 to 0.00355121
Heightened Def Con from 0.00355121 +++++++++++++++++++++++++++to 0.00355122
Heightened Def Con from 0.00355122 to 0.00355124
Heightened Def Con from 0.00356903 to 0.00356904
Heightened Def Con from 0.00356943 to 0.00356944
Heightened Def Con from 0.0035712 ++to 0.0035712
Heightened Def Con from 0.0035712 +to 0.0035712
Heightened Def Con from 0.0035712 ++++to 0.0035712
Heightened Def Con from 0.0035712 +++++to 0.0035712
Heightened Def Con from 0.0035712 +++++++++++++++++++++++++++to 0.00357121
Heightened Def Con from 0.00357121 to 0.00357123
Heightened Def Con from 0.00358905 to 0.00358905
Heightened Def Con from 0.00358945 to 0.00358945
Heightened Def Con from 0.00359119 to 0.00359119
Heightened Def Con from 0.00359119 +++++++++to 0.00359119
Heightened Def Con from 0.00359119 to 0.00359119
Heightened Def Con from 0.00359119 +++to 0.00359119
Heightened Def Con from 0.00359119 +++to 0.00359119
Heightened Def Con from 0.00359119 ++to 0.00359119
Heightened Def Con from 0.00359119 +++to 0.00359119
Heightened Def Con from 0.00359119 +++++++++++++++++++++++++++to 0.0035912
Heightened Def Con from 0.0035912 to 0.00359122
Heightened Def Con from 0.00360906 to 0.00360906
Heightened Def Con from 0.00360946 to 0.00360946
Heightened Def Con from 0.00361118 ++++++++++++++++++++to 0.00361118
Heightened Def Con from 0.00361118 +++++++++++++++++++++++++++to 0.00361118
Heightened Def Con from 0.00361119 to 0.00361121
Heightened Def Con from 0.00362907 to 0.00362907
Heightened Def Con from 0.00362947 to 0.00362947
Heightened Def Con from 0.00363116 ++++++++++++++to 0.00363116
Heightened Def Con from 0.00363116 +++++++++++++++++++++++++++to 0.00363117
Heightened Def Con from 0.00363118 to 0.0036312
Heightened Def Con from 0.00364908 to 0.00364908
Heightened Def Con from 0.00364948 to 0.00364948
Heightened Def Con from 0.00365115 +++++++++++++++++++++++++++to 0.00365116
Heightened Def Con from 0.00365117 to 0.00365118
Heightened Def Con from 0.00366909 to 0.00366909
Heightened Def Con from 0.00366949 to 0.0036695
Heightened Def Con from 0.00367114 +++to 0.00367114
Heightened Def Con from 0.00367114 +to 0.00367114
Heightened Def Con from 0.00367114 ++++++++++++++++++++++++++++to 0.00367115
Heightened Def Con from 0.00367116 to 0.00367118
Heightened Def Con from 0.0036891 to 0.0036891
Heightened Def Con from 0.0036895 to 0.00368951
Heightened Def Con from 0.00369113 ++++++++++++++++++++++++++++to 0.00369114
Heightened Def Con from 0.00369114 to 0.00369117
Heightened Def Con from 0.00370911 to 0.00370912
Heightened Def Con from 0.00370951 to 0.00370952
Heightened Def Con from 0.00371112 to 0.00371112
Heightened Def Con from 0.00371112 ++++++++++++++++++++++++++++to 0.00371113
Heightened Def Con from 0.00371113 to 0.00371116
Heightened Def Con from 0.00372912 to 0.00372913
Heightened Def Con from 0.00372952 to 0.00372953
Heightened Def Con from 0.00373111 to 0.00373111
Heightened Def Con from 0.00373111 +++to 0.00373111
Heightened Def Con from 0.00373111 ++++++++++++to 0.00373111
Heightened Def Con from 0.00373111 ++++++++++++++++++++++++++++to 0.00373112
Heightened Def Con from 0.00373112 to 0.00373115
Heightened Def Con from 0.00374913 to 0.00374914
Heightened Def Con from 0.00374953 to 0.00374954
Heightened Def Con from 0.0037511 to 0.0037511
Heightened Def Con from 0.0037511 to 0.0037511
Heightened Def Con from 0.0037511 +++++++++++++++++++to 0.0037511
Heightened Def Con from 0.0037511 ++++++++++++++++++++++++++++to 0.00375111
Heightened Def Con from 0.00375111 to 0.00375114
Heightened Def Con from 0.00376914 to 0.00376915
Heightened Def Con from 0.00376954 to 0.00376955
Heightened Def Con from 0.00377109 ++++++++to 0.00377109
Heightened Def Con from 0.00377109 ++++++++++++++++to 0.00377109
Heightened Def Con from 0.00377109 ++++++++++++++++++++++++++++to 0.0037711
Heightened Def Con from 0.0037711 to 0.00377112
Heightened Def Con from 0.00378916 to 0.00378916
Heightened Def Con from 0.00378956 to 0.00378956
Heightened Def Con from 0.00379108 ++++++++++++++++++++++++++to 0.00379108
Heightened Def Con from 0.00379108 ++++++++++++++++++++++++++++to 0.00379109
Heightened Def Con from 0.00379109 to 0.00379111
Heightened Def Con from 0.00380917 to 0.00380917
Heightened Def Con from 0.00380957 to 0.00380957
Heightened Def Con from 0.00381107 to 0.00381107
Heightened Def Con from 0.00381107 ++++to 0.00381107
Heightened Def Con from 0.00381107 to 0.00381107
Heightened Def Con from 0.00381107 +++++++++++++++++++to 0.00381107
Heightened Def Con from 0.00381107 ++++++++++++++++++++++++++++to 0.00381108
Heightened Def Con from 0.00381108 to 0.0038111
Heightened Def Con from 0.00382918 to 0.00382918
Heightened Def Con from 0.00382958 to 0.00382958
Heightened Def Con from 0.00383106 +++++to 0.00383106
Heightened Def Con from 0.00383106 ++to 0.00383106
Heightened Def Con from 0.00383106 ++++++++++++++++++++++++++++to 0.00383107
Heightened Def Con from 0.00383107 to 0.00383109
Heightened Def Con from 0.00384919 to 0.00384919
Heightened Def Con from 0.00384959 to 0.00384959
Heightened Def Con from 0.00385105 to 0.00385105
Heightened Def Con from 0.00385105 to 0.00385105
Heightened Def Con from 0.00385105 ++++++++++++++++++++++++++++to 0.00385106
Heightened Def Con from 0.00385106 to 0.00385108
Heightened Def Con from 0.00386919 to 0.0038692
Heightened Def Con from 0.00386959 to 0.0038696
Heightened Def Con from 0.00387104 +to 0.00387104
Heightened Def Con from 0.00387104 +++++++++++++++++++to 0.00387104
Heightened Def Con from 0.00387104 ++++++++++++++++++++++++++++to 0.00387105
Heightened Def Con from 0.00387105 to 0.00387108
Heightened Def Con from 0.0038896 to 0.00388961
Heightened Def Con from 0.00389103 ++to 0.00389103
Heightened Def Con from 0.00389103 +++++++++++++++++++++to 0.00389103
Heightened Def Con from 0.00389103 ++++++++++++++++++++to 0.00389103
Heightened Def Con from 0.00389103 ++++++++++++++++++to 0.00389103
Heightened Def Con from 0.00389103 ++++++++++++++++++++to 0.00389103
Heightened Def Con from 0.00389103 ++++++++++++++++++++++to 0.00389103
Heightened Def Con from 0.00389103 ++++++++++++++++++++++++++++to 0.00389104
Heightened Def Con from 0.00389104 to 0.00389107
Heightened Def Con from 0.00390921 to 0.00390922
Heightened Def Con from 0.00390961 to 0.00390962
Heightened Def Con from 0.00391102 ++++++++++++++++++++++++to 0.00391102
Heightened Def Con from 0.00391102 ++++++++++++++++++++++++++++to 0.00391103
Heightened Def Con from 0.00391103 to 0.00391106
Heightened Def Con from 0.00392922 to 0.00392922
Heightened Def Con from 0.00392962 to 0.00392963
Heightened Def Con from 0.00393101 to 0.00393101
Heightened Def Con from 0.00393101 to 0.00393101
Heightened Def Con from 0.00393101 +to 0.00393101
Heightened Def Con from 0.00393101 to 0.00393101
Heightened Def Con from 0.00393101 ++++to 0.00393101
Heightened Def Con from 0.00393101 to 0.00393101
Heightened Def Con from 0.00393101 ++to 0.00393101
Heightened Def Con from 0.00393101 +++++++++++++++++++++to 0.00393101
Heightened Def Con from 0.00393101 +++++++++++++++++++to 0.00393101
Heightened Def Con from 0.00393101 +++++++++++++++++++++++++++++to 0.00393102
Heightened Def Con from 0.00393102 to 0.00393105
Heightened Def Con from 0.00394963 to 0.00394964
Heightened Def Con from 0.003951 +++++++++++++++to 0.003951
Heightened Def Con from 0.003951 to 0.003951
Heightened Def Con from 0.003951 ++to 0.003951
Heightened Def Con from 0.003951 to 0.003951
Heightened Def Con from 0.003951 +to 0.003951
Heightened Def Con from 0.003951 +to 0.003951
Heightened Def Con from 0.003951 +++++++++++++to 0.003951
Heightened Def Con from 0.003951 +++++++++++++++++++++++++++++to 0.00395101
Heightened Def Con from 0.00395102 to 0.00395104
Heightened Def Con from 0.00396924 to 0.00396924
Heightened Def Con from 0.00396964 to 0.00396964
Heightened Def Con from 0.00397099 to 0.00397099
Heightened Def Con from 0.00397099 to 0.00397099
Heightened Def Con from 0.00397099 +++++++++++++++++++++++++++++to 0.003971
Heightened Def Con from 0.00397101 to 0.00397103
Heightened Def Con from 0.00398925 to 0.00398925
Heightened Def Con from 0.00398965 to 0.00398965
Heightened Def Con from 0.00399098 +to 0.00399098
Heightened Def Con from 0.00399098 +++++++++++++++++++++++++++++to 0.00399099
Heightened Def Con from 0.003991 to 0.00399102
Heightened Def Con from 0.00400926 to 0.00400926
Heightened Def Con from 0.00400966 to 0.00400966
Heightened Def Con from 0.00401098 ++++++++to 0.00401098
Heightened Def Con from 0.00401098 ++to 0.00401098
Heightened Def Con from 0.00401098 +++++++++++++++++++++++++++++to 0.00401098
Heightened Def Con from 0.00401099 to 0.00401101
Heightened Def Con from 0.00402927 to 0.00402927
Heightened Def Con from 0.00402967 to 0.00402967
Heightened Def Con from 0.00403097 to 0.00403097
Heightened Def Con from 0.00403097 to 0.00403097
Heightened Def Con from 0.00403097 to 0.00403097
Heightened Def Con from 0.00403097 +to 0.00403097
Heightened Def Con from 0.00403097 +++to 0.00403097
Heightened Def Con from 0.00403097 +to 0.00403097
Heightened Def Con from 0.00403097 +++++++++++++++++++++++++++++to 0.00403098
Heightened Def Con from 0.00403098 to 0.004031
Heightened Def Con from 0.00404927 to 0.00404928
Heightened Def Con from 0.00404967 to 0.00404968
Heightened Def Con from 0.00405096 to 0.00405096
Heightened Def Con from 0.00405096 to 0.00405096
Heightened Def Con from 0.00405096 +++to 0.00405096
Heightened Def Con from 0.00405096 ++to 0.00405096
Heightened Def Con from 0.00405096 +++++++++++++++++++++++++++++to 0.00405097
Heightened Def Con from 0.00405097 to 0.004051
Heightened Def Con from 0.00406928 to 0.00406928
Heightened Def Con from 0.00406968 to 0.00406969
Heightened Def Con from 0.00407095 ++++++++++++++++++++++to 0.00407095
Heightened Def Con from 0.00407095 +++++++++++++++++++++++++++++to 0.00407096
Heightened Def Con from 0.00407097 to 0.00407099
Heightened Def Con from 0.00408929 to 0.00408929
Heightened Def Con from 0.00408969 to 0.00408969
Heightened Def Con from 0.00409094 to 0.00409094
Heightened Def Con from 0.00409094 to 0.00409094
Heightened Def Con from 0.00409094 to 0.00409094
Heightened Def Con from 0.00409094 to 0.00409094
Heightened Def Con from 0.00409094 +++++++++++++++++++++++++++++to 0.00409095
Heightened Def Con from 0.00409096 to 0.00409098
Heightened Def Con from 0.0041093 to 0.0041093
Heightened Def Con from 0.0041097 to 0.0041097
Heightened Def Con from 0.00411094 +++to 0.00411094
Heightened Def Con from 0.00411094 +++++++++++++++++++++++++++++to 0.00411095
Heightened Def Con from 0.00411095 to 0.00411097
Heightened Def Con from 0.00412931 to 0.00412931
Heightened Def Con from 0.0041297 to 0.00412971
Heightened Def Con from 0.00413093 to 0.00413093
Heightened Def Con from 0.00413093 to 0.00413093
Heightened Def Con from 0.00413093 ++to 0.00413093
Heightened Def Con from 0.00413093 +++++++++++to 0.00413093
Heightened Def Con from 0.00413093 +to 0.00413093
Heightened Def Con from 0.00413093 +++++++++to 0.00413093
Heightened Def Con from 0.00413093 +++++++++++++++++++++++++++++to 0.00413094
Heightened Def Con from 0.00413094 to 0.00413097
Heightened Def Con from 0.00414931 to 0.00414931
Heightened Def Con from 0.00414971 to 0.00414972
Heightened Def Con from 0.00415092 ++++++++++++++++++to 0.00415092
Heightened Def Con from 0.00415092 +++++++++++++++++++++++++to 0.00415092
Heightened Def Con from 0.00415092 ++++++++++++++++to 0.00415092
Heightened Def Con from 0.00415092 +++++++++++++++++++++++++++++to 0.00415093
Heightened Def Con from 0.00415094 to 0.00415096
Heightened Def Con from 0.00416932 to 0.00416932
Heightened Def Con from 0.00416972 to 0.00416972
Heightened Def Con from 0.00417091 to 0.00417091
Heightened Def Con from 0.00417091 ++++++to 0.00417091
Heightened Def Con from 0.00417091 to 0.00417091
Heightened Def Con from 0.00417091 +++++++++++++++++++++++++++++to 0.00417092
Heightened Def Con from 0.00417093 to 0.00417095
Heightened Def Con from 0.00418933 to 0.00418933
Heightened Def Con from 0.00418973 to 0.00418973
Heightened Def Con from 0.00419091 to 0.00419091
Heightened Def Con from 0.00419091 +++++++++++++++++++++++++++++to 0.00419092
Heightened Def Con from 0.00419092 to 0.00419094
Heightened Def Con from 0.00420933 to 0.00420934
Heightened Def Con from 0.00420973 to 0.00420974
Heightened Def Con from 0.0042109 to 0.0042109
Heightened Def Con from 0.0042109 to 0.0042109
Heightened Def Con from 0.0042109 to 0.0042109
Heightened Def Con from 0.0042109 +++++++++++++++++++++++++++++to 0.00421091
Heightened Def Con from 0.00421091 to 0.00421094
Heightened Def Con from 0.00422934 to 0.00422934
Heightened Def Con from 0.00422974 to 0.00422974
Heightened Def Con from 0.00423089 to 0.00423089
Heightened Def Con from 0.00423089 +to 0.00423089
Heightened Def Con from 0.00423089 to 0.00423089
Heightened Def Con from 0.00423089 to 0.00423089
Heightened Def Con from 0.00423089 ++to 0.00423089
Heightened Def Con from 0.00423089 ++++++++++++++++++++++++++to 0.00423089
Heightened Def Con from 0.00423089 +++++++++++++++++++++++++++++to 0.0042309
Heightened Def Con from 0.00423091 to 0.00423093
Heightened Def Con from 0.00424935 to 0.00424935
Heightened Def Con from 0.00424975 to 0.00424975
Heightened Def Con from 0.00425089 to 0.00425089
Heightened Def Con from 0.00425089 to 0.00425089
Heightened Def Con from 0.00425089 +++++++++++++++++++++++++to 0.00425089
Heightened Def Con from 0.00425089 to 0.00425089
Heightened Def Con from 0.00425089 ++++++++++++to 0.00425089
Heightened Def Con from 0.00425089 +++++++++++++++++++++++++++++to 0.0042509
Heightened Def Con from 0.0042509 to 0.00425092
Heightened Def Con from 0.00426935 to 0.00426935
Heightened Def Con from 0.00426975 to 0.00426976
Heightened Def Con from 0.00427088 to 0.00427088
Heightened Def Con from 0.00427088 +++to 0.00427088
Heightened Def Con from 0.00427088 ++++to 0.00427088
Heightened Def Con from 0.00427088 +to 0.00427088
Heightened Def Con from 0.00427088 ++++to 0.00427088
Heightened Def Con from 0.00427088 ++to 0.00427088
Heightened Def Con from 0.00427088 +to 0.00427088
Heightened Def Con from 0.00427088 ++++++++++++++to 0.00427088
Heightened Def Con from 0.00427088 +++++++++++++++++++++++++++++to 0.00427089
Heightened Def Con from 0.00427089 to 0.00427092
Heightened Def Con from 0.00428936 to 0.00428936
Heightened Def Con from 0.00428976 to 0.00428976
Heightened Def Con from 0.00429087 +++++to 0.00429087
Heightened Def Con from 0.00429087 +to 0.00429087
Heightened Def Con from 0.00429087 +++++++++++++++++++++++++++++to 0.00429088
Heightened Def Con from 0.00429089 to 0.00429091
Heightened Def Con from 0.00430937 to 0.00430937
Heightened Def Con from 0.00430976 to 0.00430977
Heightened Def Con from 0.00431087 to 0.00431087
Heightened Def Con from 0.00431087 to 0.00431087
Heightened Def Con from 0.00431087 +++to 0.00431087
Heightened Def Con from 0.00431087 +++++++to 0.00431087
Heightened Def Con from 0.00431087 +to 0.00431087
Heightened Def Con from 0.00431087 ++++to 0.00431087
Heightened Def Con from 0.00431087 +++++++++++++++++++++++++++++to 0.00431088
Heightened Def Con from 0.00431088 to 0.00431091
Heightened Def Con from 0.00432937 to 0.00432937
Heightened Def Con from 0.00432977 to 0.00432977
Heightened Def Con from 0.00433086 to 0.00433086
Heightened Def Con from 0.00433086 to 0.00433086
Heightened Def Con from 0.00433086 +to 0.00433086
Heightened Def Con from 0.00433086 +++to 0.00433086
Heightened Def Con from 0.00433086 to 0.00433086
Heightened Def Con from 0.00433086 ++++++++++++++++++to 0.00433086
Heightened Def Con from 0.00433086 +++++++++++++++++++++++++++++to 0.00433087
Heightened Def Con from 0.00433088 to 0.0043309
Heightened Def Con from 0.00434938 to 0.00434938
Heightened Def Con from 0.00434978 to 0.00434978
Heightened Def Con from 0.00435086 +++++++++++++++++++++++++++++to 0.00435086
Heightened Def Con from 0.00435087 to 0.00435089
Heightened Def Con from 0.00436938 to 0.00436938
Heightened Def Con from 0.00436978 to 0.00436979
Heightened Def Con from 0.00437085 to 0.00437085
Heightened Def Con from 0.00437085 +++++++++++++++++++++++++++++to 0.00437086
Heightened Def Con from 0.00437087 to 0.00437089
Heightened Def Con from 0.00438939 to 0.00438939
Heightened Def Con from 0.00438979 to 0.00438979
Heightened Def Con from 0.00439085 ++++++to 0.00439085
Heightened Def Con from 0.00439085 ++++++++++++++++to 0.00439085
Heightened Def Con from 0.00439085 ++++++++++++++++to 0.00439085
Heightened Def Con from 0.00439085 +++++++++++++++++++++++++++++to 0.00439085
Heightened Def Con from 0.00439086 to 0.00439088
Heightened Def Con from 0.00440939 to 0.00440939
Heightened Def Con from 0.00440979 to 0.0044098
Heightened Def Con from 0.00441084 to 0.00441084
Heightened Def Con from 0.00441084 ++++++++to 0.00441084
Heightened Def Con from 0.00441084 +to 0.00441084
Heightened Def Con from 0.00441084 +++++++++++++++to 0.00441084
Heightened Def Con from 0.00441084 +++++++++++++++++++++++++++++to 0.00441085
Heightened Def Con from 0.00441086 to 0.00441088
Heightened Def Con from 0.0044294 to 0.0044294
Heightened Def Con from 0.00442979 to 0.0044298
Heightened Def Con from 0.00443084 to 0.00443084
Heightened Def Con from 0.00443084 to 0.00443084
Heightened Def Con from 0.00443084 ++++to 0.00443084
Heightened Def Con from 0.00443084 to 0.00443084
Heightened Def Con from 0.00443084 +++to 0.00443084
Heightened Def Con from 0.00443084 ++++++to 0.00443084
Heightened Def Con from 0.00443084 ++++++++++++++++++++to 0.00443084
Heightened Def Con from 0.00443084 +++++++++++++++++++++++to 0.00443084
Heightened Def Con from 0.00443084 +++++++++++++++++++++++++++++to 0.00443085
Heightened Def Con from 0.00443085 to 0.00443087
Heightened Def Con from 0.0044494 to 0.0044494
Heightened Def Con from 0.0044498 to 0.00444981
Heightened Def Con from 0.00445083 to 0.00445083
Heightened Def Con from 0.00445083 +to 0.00445083
Heightened Def Con from 0.00445083 +++++++++++to 0.00445083
Heightened Def Con from 0.00445083 +++to 0.00445083
Heightened Def Con from 0.00445083 +++++++++++++++++++++++++++++to 0.00445084
Heightened Def Con from 0.00445085 to 0.00445087
Heightened Def Con from 0.00446941 to 0.00446941
Heightened Def Con from 0.0044698 to 0.00446981
Heightened Def Con from 0.00447083 to 0.00447083
Heightened Def Con from 0.00447083 ++++++++++++++++++++to 0.00447083
Heightened Def Con from 0.00447083 +++++++++++++++++++++++++++++to 0.00447084
Heightened Def Con from 0.00447084 to 0.00447086
Heightened Def Con from 0.00448941 to 0.00448941
Heightened Def Con from 0.00448981 to 0.00448982
Heightened Def Con from 0.00449082 +to 0.00449082
Heightened Def Con from 0.00449082 to 0.00449082
Heightened Def Con from 0.00449082 +++to 0.00449082
Heightened Def Con from 0.00449082 +++++++++++++++++++++++++++++to 0.00449083
Heightened Def Con from 0.00449084 to 0.00449086
Heightened Def Con from 0.00450942 to 0.00450942
Heightened Def Con from 0.00450981 to 0.00450982
Heightened Def Con from 0.00451082 ++to 0.00451082
Heightened Def Con from 0.00451082 ++++++to 0.00451082
Heightened Def Con from 0.00451082 to 0.00451082
Heightened Def Con from 0.00451082 ++++++to 0.00451082
Heightened Def Con from 0.00451082 ++++++++++++++++++++++++++to 0.00451082
Heightened Def Con from 0.00451082 +++++++++++++++++++++++++++++to 0.00451083
Heightened Def Con from 0.00451083 to 0.00451086
Heightened Def Con from 0.00452942 to 0.00452942
Heightened Def Con from 0.00452982 to 0.00452982
Heightened Def Con from 0.00453081 to 0.00453081
Heightened Def Con from 0.00453081 ++++++++++++++to 0.00453081
Heightened Def Con from 0.00453081 ++++++++++++++++++++to 0.00453081
Heightened Def Con from 0.00453081 +++++++++++++++to 0.00453081
Heightened Def Con from 0.00453081 +++++++++++++++++++++++++++++to 0.00453082
Heightened Def Con from 0.00453083 to 0.00453085
Heightened Def Con from 0.00454942 to 0.00454943
Heightened Def Con from 0.00454982 to 0.00454983
Heightened Def Con from 0.00455081 to 0.00455081
Heightened Def Con from 0.00455081 to 0.00455081
Heightened Def Con from 0.00455081 ++++to 0.00455081
Heightened Def Con from 0.00455081 +to 0.00455081
Heightened Def Con from 0.00455081 ++++++++++++to 0.00455081
Heightened Def Con from 0.00455081 ++++++++++++to 0.00455081
Heightened Def Con from 0.00455081 +++++++++++++++++++++++++++++to 0.00455082
Heightened Def Con from 0.00455082 to 0.00455085
Heightened Def Con from 0.00456943 to 0.00456943
Heightened Def Con from 0.00456982 to 0.00456983
Heightened Def Con from 0.00457081 to 0.00457081
Heightened Def Con from 0.00457081 +++++++++++++++++++++++++++++to 0.00457082
Heightened Def Con from 0.00457082 to 0.00457084
Heightened Def Con from 0.00458943 to 0.00458943
Heightened Def Con from 0.00458983 to 0.00458984
Heightened Def Con from 0.0045908 ++to 0.0045908
Heightened Def Con from 0.0045908 ++++++++++++++++++to 0.0045908
Heightened Def Con from 0.0045908 +++to 0.0045908
Heightened Def Con from 0.0045908 +++to 0.0045908
Heightened Def Con from 0.0045908 +++++++++++++++++++++++++++to 0.0045908
Heightened Def Con from 0.0045908 +++++++++++++++++++++++++++++to 0.00459081
Heightened Def Con from 0.00459082 to 0.00459084
Heightened Def Con from 0.00460944 to 0.00460944
Heightened Def Con from 0.00460983 to 0.00460984
Heightened Def Con from 0.0046108 to 0.0046108
Heightened Def Con from 0.0046108 +to 0.0046108
Heightened Def Con from 0.0046108 +++to 0.0046108
Heightened Def Con from 0.0046108 +++++++to 0.0046108
Heightened Def Con from 0.0046108 +++++++to 0.0046108
Heightened Def Con from 0.0046108 +to 0.0046108
Heightened Def Con from 0.0046108 ++++++++++to 0.0046108
Heightened Def Con from 0.0046108 ++++++to 0.0046108
Heightened Def Con from 0.0046108 ++++++++++++++++++++++++++to 0.0046108
Heightened Def Con from 0.0046108 +++++++++++++++++++++++++++++to 0.00461081
Heightened Def Con from 0.00461081 to 0.00461084
Heightened Def Con from 0.00462944 to 0.00462944
Heightened Def Con from 0.00462984 to 0.00462984
Heightened Def Con from 0.0046308 to 0.0046308
Heightened Def Con from 0.0046308 to 0.0046308
Heightened Def Con from 0.0046308 ++to 0.0046308
Heightened Def Con from 0.0046308 to 0.0046308
Heightened Def Con from 0.0046308 +++++++++++++++++++++++++++++to 0.00463081
Heightened Def Con from 0.00463081 to 0.00463083
Heightened Def Con from 0.00464944 to 0.00464944
Heightened Def Con from 0.00464984 to 0.00464984
Heightened Def Con from 0.00465079 +to 0.00465079
Heightened Def Con from 0.00465079 +++++++++++++to 0.00465079
Heightened Def Con from 0.00465079 +++++++++++++++++++++++++++++to 0.0046508
Heightened Def Con from 0.00465081 to 0.00465083
Heightened Def Con from 0.00466944 to 0.00466945
Heightened Def Con from 0.00466984 to 0.00466985
Heightened Def Con from 0.00467079 to 0.00467079
Heightened Def Con from 0.00467079 +++++++to 0.00467079
Heightened Def Con from 0.00467079 ++++++++++++++++++++++to 0.00467079
Heightened Def Con from 0.00467079 +++++++++++++++++++++to 0.00467079
Heightened Def Con from 0.00467079 +++++++++++++++++++++++++++++to 0.0046708
Heightened Def Con from 0.00467081 to 0.00467083
Heightened Def Con from 0.00468945 to 0.00468945
Heightened Def Con from 0.00468985 to 0.00468985
Heightened Def Con from 0.00469079 to 0.00469079
Heightened Def Con from 0.00469079 to 0.00469079
Heightened Def Con from 0.00469079 +++++++++++++++++++++++++++++to 0.0046908
Heightened Def Con from 0.0046908 to 0.00469082
Heightened Def Con from 0.00470945 to 0.00470945
Heightened Def Con from 0.00470985 to 0.00470985
Heightened Def Con from 0.00471078 to 0.00471078
Heightened Def Con from 0.00471078 +++++++++to 0.00471078
Heightened Def Con from 0.00471078 +++to 0.00471078
Heightened Def Con from 0.00471078 +++++++++++++++++++to 0.00471078
Heightened Def Con from 0.00471078 ++++++++++++++++++++++to 0.00471078
Heightened Def Con from 0.00471078 ++++++++++++++++to 0.00471078
Heightened Def Con from 0.00471078 +++++++++++++++++++++++++++to 0.00471078
Heightened Def Con from 0.00471078 +++++++++++++++++++++++++++++to 0.00471079
Heightened Def Con from 0.0047108 to 0.00471082
Heightened Def Con from 0.00472945 to 0.00472945
Heightened Def Con from 0.00472985 to 0.00472986
Heightened Def Con from 0.00473078 to 0.00473078
Heightened Def Con from 0.00473078 ++to 0.00473078
Heightened Def Con from 0.00473078 ++to 0.00473078
Heightened Def Con from 0.00473078 +++++++++++to 0.00473078
Heightened Def Con from 0.00473078 +++++++++++++++++++++++++++++to 0.00473079
Heightened Def Con from 0.0047308 to 0.00473082
Heightened Def Con from 0.00474945 to 0.00474946
Heightened Def Con from 0.00474985 to 0.00474986
Heightened Def Con from 0.00475078 to 0.00475078
Heightened Def Con from 0.00475078 to 0.00475078
Heightened Def Con from 0.00475078 +++++++++++++++++++++++++++++to 0.00475079
Heightened Def Con from 0.00475079 to 0.00475082
Heightened Def Con from 0.00476946 to 0.00476946
Heightened Def Con from 0.00476985 to 0.00476986
Heightened Def Con from 0.00477078 +++to 0.00477078
Heightened Def Con from 0.00477078 +++++++++++++++++to 0.00477078
Heightened Def Con from 0.00477078 +++++++++++++++++++++++++++++to 0.00477079
Heightened Def Con from 0.00477079 to 0.00477082
Heightened Def Con from 0.00478946 to 0.00478946
Heightened Def Con from 0.00478986 to 0.00478986
Heightened Def Con from 0.00479078 +++++to 0.00479078
Heightened Def Con from 0.00479078 +++++to 0.00479078
Heightened Def Con from 0.00479078 +to 0.00479078
Heightened Def Con from 0.00479078 +to 0.00479078
Heightened Def Con from 0.00479078 to 0.00479078
Heightened Def Con from 0.00479078 to 0.00479078
Heightened Def Con from 0.00479078 +++++++++++++++to 0.00479078
Heightened Def Con from 0.00479078 ++++++++++++++++to 0.00479078
Heightened Def Con from 0.00479078 ++++++++++++++++++++++++to 0.00479078
Heightened Def Con from 0.00479078 +++++++++++++++++++to 0.00479078
Heightened Def Con from 0.00479078 +++++++++++++++++++++++++++++to 0.00479078
Heightened Def Con from 0.00479079 to 0.00479081
Heightened Def Con from 0.00480946 to 0.00480946
Heightened Def Con from 0.00480986 to 0.00480986
Heightened Def Con from 0.00481077 +++++++to 0.00481077
Heightened Def Con from 0.00481077 to 0.00481077
Heightened Def Con from 0.00481077 ++++to 0.00481077
Heightened Def Con from 0.00481077 +to 0.00481077
Heightened Def Con from 0.00481077 +++++++++++++++++to 0.00481077
Heightened Def Con from 0.00481077 +++++++++++++++++++++++++++++to 0.00481078
Heightened Def Con from 0.00481079 to 0.00481081
Heightened Def Con from 0.00482946 to 0.00482946
Heightened Def Con from 0.00482986 to 0.00482987
Heightened Def Con from 0.00483077 ++++to 0.00483077
Heightened Def Con from 0.00483077 ++++++++++++++++++++++to 0.00483077
Heightened Def Con from 0.00483077 +++++++++++++++++++++++++++++to 0.00483078
Heightened Def Con from 0.00483079 to 0.00483081
Heightened Def Con from 0.00484946 to 0.00484946
Heightened Def Con from 0.00484986 to 0.00484987
Heightened Def Con from 0.00485077 to 0.00485077
Heightened Def Con from 0.00485077 +to 0.00485077
Heightened Def Con from 0.00485077 +++++++++++++++++++++to 0.00485077
Heightened Def Con from 0.00485077 +++++++++++++++++++++++++++++to 0.00485078
Heightened Def Con from 0.00485079 to 0.00485081
Heightened Def Con from 0.00486946 to 0.00486947
Heightened Def Con from 0.00486986 to 0.00486987
Heightened Def Con from 0.00487077 to 0.00487077
Heightened Def Con from 0.00487077 +++++++++++++++++++++++++++++to 0.00487078
Heightened Def Con from 0.00487078 to 0.00487081
Heightened Def Con from 0.00488946 to 0.00488947
Heightened Def Con from 0.00488986 to 0.00488987
Heightened Def Con from 0.00489077 to 0.00489077
Heightened Def Con from 0.00489077 +++++++++++++++++to 0.00489077
Heightened Def Con from 0.00489077 +++++++++++++++++++++++++++++to 0.00489078
Heightened Def Con from 0.00489078 to 0.00489081
Heightened Def Con from 0.00490947 to 0.00490947
Heightened Def Con from 0.00490986 to 0.00490987
Heightened Def Con from 0.00491077 to 0.00491077
Heightened Def Con from 0.00491077 to 0.00491077
Heightened Def Con from 0.00491077 to 0.00491077
Heightened Def Con from 0.00491077 +++++++++++++++++++++++++to 0.00491077
Heightened Def Con from 0.00491077 +++++++++++++++++++++++++++++to 0.00491078
Heightened Def Con from 0.00491078 to 0.00491081
Heightened Def Con from 0.00492947 to 0.00492947
Heightened Def Con from 0.00492987 to 0.00492987
Heightened Def Con from 0.00493077 +++to 0.00493077
Heightened Def Con from 0.00493077 ++to 0.00493077
Heightened Def Con from 0.00493077 ++to 0.00493077
Heightened Def Con from 0.00493077 ++to 0.00493077
Heightened Def Con from 0.00493077 +to 0.00493077
Heightened Def Con from 0.00493077 +to 0.00493077
Heightened Def Con from 0.00493077 +++++++++++++++++to 0.00493077
Heightened Def Con from 0.00493077 +++++++++++++++++++++++++++++to 0.00493078
Heightened Def Con from 0.00493078 to 0.00493081
Heightened Def Con from 0.00494947 to 0.00494947
Heightened Def Con from 0.00494987 to 0.00494987
Heightened Def Con from 0.00495077 +to 0.00495077
Heightened Def Con from 0.00495077 ++to 0.00495077
Heightened Def Con from 0.00495077 +++++++++++++++++++++++++++++to 0.00495078
Heightened Def Con from 0.00495078 to 0.0049508
Heightened Def Con from 0.00496947 to 0.00496947
Heightened Def Con from 0.00496987 to 0.00496987
Heightened Def Con from 0.00497077 +to 0.00497077
Heightened Def Con from 0.00497077 +++to 0.00497077
Heightened Def Con from 0.00497077 +++to 0.00497077
Heightened Def Con from 0.00497077 +to 0.00497077
Heightened Def Con from 0.00497077 ++to 0.00497077
Heightened Def Con from 0.00497077 to 0.00497077
Heightened Def Con from 0.00497077 +++++++++++++++++++++++++to 0.00497077
Heightened Def Con from 0.00497077 +++++++++++++++++++++++++++++to 0.00497078
Heightened Def Con from 0.00497078 to 0.0049708
Heightened Def Con from 0.00498947 to 0.00498947
Heightened Def Con from 0.00498987 to 0.00498987
Heightened Def Con from 0.00499077 +++++++++++++++++++++to 0.00499077
Heightened Def Con from 0.00499077 +++++++++++++++++++++++++++++to 0.00499078
Heightened Def Con from 0.00499078 to 0.0049908
Heightened Def Con from 0.00500947 to 0.00500947
Heightened Def Con from 0.00500987 to 0.00500987
Heightened Def Con from 0.00501077 to 0.00501077
Heightened Def Con from 0.00501077 +to 0.00501077
Heightened Def Con from 0.00501077 +++++++++++++++++++++++to 0.00501077
Heightened Def Con from 0.00501077 +++++++++++++++++++to 0.00501077
Heightened Def Con from 0.00501077 ++++++++++++++++++++++++++++to 0.00501077
Heightened Def Con from 0.00501077 ++++++++++++++++++++++++++to 0.00501077
Heightened Def Con from 0.00501077 +++++++++++++++++++++++++++to 0.00501077
Heightened Def Con from 0.00501077 +++++++++++++++++++++++++++++to 0.00501078
Heightened Def Con from 0.00501078 to 0.0050108
Heightened Def Con from 0.00502947 to 0.00502947
Heightened Def Con from 0.00502987 to 0.00502987
Heightened Def Con from 0.00503077 to 0.00503077
Heightened Def Con from 0.00503077 +++++++++++++++++++to 0.00503077
Heightened Def Con from 0.00503077 +++++++++++++++++++++++++++++to 0.00503078
Heightened Def Con from 0.00503078 to 0.00503081
Heightened Def Con from 0.00504947 to 0.00504947
Heightened Def Con from 0.00504987 to 0.00504987
Heightened Def Con from 0.00505077 ++to 0.00505077
Heightened Def Con from 0.00505077 to 0.00505077
Heightened Def Con from 0.00505077 +to 0.00505077
Heightened Def Con from 0.00505077 +++++++++++++++++++++++++++++to 0.00505078
Heightened Def Con from 0.00505078 to 0.0050508
Heightened Def Con from 0.00506947 to 0.00506947
Heightened Def Con from 0.00506987 to 0.00506987
Heightened Def Con from 0.00507077 +to 0.00507077
Heightened Def Con from 0.00507077 +++++to 0.00507077
Heightened Def Con from 0.00507077 to 0.00507077
Heightened Def Con from 0.00507077 to 0.00507077
Heightened Def Con from 0.00507077 ++to 0.00507077
Heightened Def Con from 0.00507077 +++++++++++++++++++++++++++++to 0.00507078
Heightened Def Con from 0.00507078 to 0.00507081
Heightened Def Con from 0.00508947 to 0.00508947
Heightened Def Con from 0.00508986 to 0.00508987
Heightened Def Con from 0.00509077 +++++++++++++++++++++++++++++to 0.00509078
Heightened Def Con from 0.00509078 to 0.00509081
Heightened Def Con from 0.00510946 to 0.00510947
Heightened Def Con from 0.00510986 to 0.00510987
Heightened Def Con from 0.00511077 to 0.00511077
Heightened Def Con from 0.00511077 +to 0.00511077
Heightened Def Con from 0.00511077 +to 0.00511077
Heightened Def Con from 0.00511077 +++++++++++++++++++++++++++++to 0.00511078
Heightened Def Con from 0.00511078 to 0.00511081
Heightened Def Con from 0.00512946 to 0.00512947
Heightened Def Con from 0.00512986 to 0.00512987
Heightened Def Con from 0.00513077 to 0.00513077
Heightened Def Con from 0.00513077 to 0.00513077
Heightened Def Con from 0.00513077 to 0.00513077
Heightened Def Con from 0.00513077 ++to 0.00513077
Heightened Def Con from 0.00513077 ++to 0.00513077
Heightened Def Con from 0.00513077 +++to 0.00513077
Heightened Def Con from 0.00513077 +++++++++++++++++++++++++++++to 0.00513078
Heightened Def Con from 0.00513079 to 0.00513081
Heightened Def Con from 0.00514946 to 0.00514946
Heightened Def Con from 0.00514986 to 0.00514987
Heightened Def Con from 0.00515077 ++to 0.00515077
Heightened Def Con from 0.00515077 to 0.00515077
Heightened Def Con from 0.00515077 ++to 0.00515077
Heightened Def Con from 0.00515077 to 0.00515077
Heightened Def Con from 0.00515077 +++++++++++++++++++to 0.00515077
Heightened Def Con from 0.00515077 +++++++++++++++++++++++++++++to 0.00515078
Heightened Def Con from 0.00515079 to 0.00515081
Heightened Def Con from 0.00516946 to 0.00516946
Heightened Def Con from 0.00516986 to 0.00516986
Heightened Def Con from 0.00517077 +to 0.00517077
Heightened Def Con from 0.00517077 to 0.00517077
Heightened Def Con from 0.00517077 +++to 0.00517077
Heightened Def Con from 0.00517077 ++++to 0.00517077
Heightened Def Con from 0.00517077 +to 0.00517077
Heightened Def Con from 0.00517077 +++++++++++++++++++++++++++++to 0.00517078
Heightened Def Con from 0.00517079 to 0.00517079
Heightened Def Con from 0.00517087 to 0.00517087
Heightened Def Con from 0.00517088 to 0.00517089
Heightened Def Con from 0.00518986 to 0.00518986
Heightened Def Con from 0.00519078 ++++++++++to 0.00519078
Heightened Def Con from 0.00519078 +++++++++++++++to 0.00519078
Heightened Def Con from 0.00519078 +++++++++++++++++to 0.00519078
Heightened Def Con from 0.00519078 +++++++++++++++++++++++++++++to 0.00519078
Heightened Def Con from 0.00519079 to 0.00519081
Heightened Def Con from 0.00520946 to 0.00520946
Heightened Def Con from 0.00520986 to 0.00520986
Heightened Def Con from 0.00521078 to 0.00521078
Heightened Def Con from 0.00521078 +to 0.00521078
Heightened Def Con from 0.00521078 to 0.00521078
Heightened Def Con from 0.00521078 +++++++++++++++++++++++++++++to 0.00521079
Heightened Def Con from 0.00521079 to 0.00521081
Heightened Def Con from 0.00522946 to 0.00522946
Heightened Def Con from 0.00522986 to 0.00522986
Heightened Def Con from 0.00523078 +++to 0.00523078
Heightened Def Con from 0.00523078 +to 0.00523078
Heightened Def Con from 0.00523078 to 0.00523078
Heightened Def Con from 0.00523078 +++++++++++++++++++++++++++++to 0.00523079
Heightened Def Con from 0.00523079 to 0.00523082
Heightened Def Con from 0.00524945 to 0.00524946
Heightened Def Con from 0.00524985 to 0.00524986
Heightened Def Con from 0.00525078 to 0.00525078
Heightened Def Con from 0.00525078 to 0.00525078
Heightened Def Con from 0.00525078 to 0.00525078
Heightened Def Con from 0.00525078 ++to 0.00525078
Heightened Def Con from 0.00525078 +++++++to 0.00525078
Heightened Def Con from 0.00525078 ++to 0.00525078
Heightened Def Con from 0.00525078 ++++++++++++++++++++to 0.00525078
Heightened Def Con from 0.00525078 +++++++++++++++++++++++++++++to 0.00525079
Heightened Def Con from 0.00525079 to 0.00525082
Heightened Def Con from 0.00526945 to 0.00526945
Heightened Def Con from 0.00526985 to 0.00526986
Heightened Def Con from 0.00527078 ++++to 0.00527078
Heightened Def Con from 0.00527078 +to 0.00527078
Heightened Def Con from 0.00527078 ++to 0.00527078
Heightened Def Con from 0.00527078 +++to 0.00527078
Heightened Def Con from 0.00527078 to 0.00527078
Heightened Def Con from 0.00527078 +++to 0.00527078
Heightened Def Con from 0.00527078 to 0.00527078
Heightened Def Con from 0.00527078 +++++++++++++++++++++++++++++to 0.00527079
Heightened Def Con from 0.0052708 to 0.00527082
Heightened Def Con from 0.00528945 to 0.00528945
Heightened Def Con from 0.00528985 to 0.00528986
Heightened Def Con from 0.00529078 to 0.00529078
Heightened Def Con from 0.00529078 to 0.00529078
Heightened Def Con from 0.00529078 to 0.00529078
Heightened Def Con from 0.00529078 ++++++to 0.00529078
Heightened Def Con from 0.00529078 +++++++to 0.00529078
Heightened Def Con from 0.00529078 +++++++++++++++++++++++++++++to 0.00529079
Heightened Def Con from 0.0052908 to 0.00529082
Heightened Def Con from 0.00530945 to 0.00530945
Heightened Def Con from 0.00530985 to 0.00530985
Heightened Def Con from 0.00531079 +++++++++++++++++++++++++++++to 0.0053108
Heightened Def Con from 0.0053108 to 0.00531083
Heightened Def Con from 0.00532944 to 0.00532945
Heightened Def Con from 0.00532984 to 0.00532985
Heightened Def Con from 0.00533079 +to 0.00533079
Heightened Def Con from 0.00533079 +++++++++++++++++++++++++++++to 0.0053308
Heightened Def Con from 0.0053308 to 0.00533083
Heightened Def Con from 0.00534944 to 0.00534944
Heightened Def Con from 0.00534984 to 0.00534985
Heightened Def Con from 0.00535079 +to 0.00535079
Heightened Def Con from 0.00535079 +++++++to 0.00535079
Heightened Def Con from 0.00535079 +++to 0.00535079
Heightened Def Con from 0.00535079 +to 0.00535079
Heightened Def Con from 0.00535079 +++++++++++++++++++++++++++++to 0.0053508
Heightened Def Con from 0.00535081 to 0.00535083
Heightened Def Con from 0.00536944 to 0.00536944
Heightened Def Con from 0.00536984 to 0.00536984
Heightened Def Con from 0.0053708 to 0.0053708
Heightened Def Con from 0.0053708 to 0.0053708
Heightened Def Con from 0.0053708 ++++++++++to 0.0053708
Heightened Def Con from 0.0053708 +++++to 0.0053708
Heightened Def Con from 0.0053708 +to 0.0053708
Heightened Def Con from 0.0053708 to 0.0053708
Heightened Def Con from 0.0053708 +++++++++++++++++++++++++++++to 0.00537081
Heightened Def Con from 0.00537081 to 0.00537083
Heightened Def Con from 0.00538943 to 0.00538944
Heightened Def Con from 0.00538983 to 0.00538984
Heightened Def Con from 0.0053908 +++++++++++++++++++++++++++++to 0.00539081
Heightened Def Con from 0.00539081 to 0.00539084
Heightened Def Con from 0.00540943 to 0.00540943
Heightened Def Con from 0.00540983 to 0.00540984
Heightened Def Con from 0.0054108 to 0.0054108
Heightened Def Con from 0.0054108 ++++++++++++++++++++++to 0.0054108
Heightened Def Con from 0.0054108 +++++++++++++++++++to 0.0054108
Heightened Def Con from 0.0054108 +++++++++++++++++++++++++++++to 0.00541081
Heightened Def Con from 0.00541082 to 0.00541084
Heightened Def Con from 0.00542943 to 0.00542943
Heightened Def Con from 0.00542982 to 0.00542983
Heightened Def Con from 0.00543081 +++++++++++++++++++++++++++++to 0.00543082
Heightened Def Con from 0.00543082 to 0.00543084
Heightened Def Con from 0.00544943 to 0.00544943
Heightened Def Con from 0.00544981 to 0.00544982
Heightened Def Con from 0.00544982 to 0.00544983
Heightened Def Con from 0.00545081 +++++to 0.00545081
Heightened Def Con from 0.00545081 to 0.00545081
Heightened Def Con from 0.00545081 ++++++to 0.00545081
Heightened Def Con from 0.00545081 +to 0.00545081
Heightened Def Con from 0.00545081 +++++++++++++++++++++++++++++to 0.00545082
Heightened Def Con from 0.00545082 to 0.00545085
Heightened Def Con from 0.00546942 to 0.00546942
Heightened Def Con from 0.00546982 to 0.00546982
Heightened Def Con from 0.00547081 to 0.00547081
Heightened Def Con from 0.00547081 to 0.00547081
Heightened Def Con from 0.00547081 +++++to 0.00547081
Heightened Def Con from 0.00547081 to 0.00547081
Heightened Def Con from 0.00547081 +++++++++++++++++++++++++to 0.00547081
Heightened Def Con from 0.00547081 +++++++++++++++++++++++++++++to 0.00547082
Heightened Def Con from 0.00547083 to 0.00547085
Heightened Def Con from 0.00548942 to 0.00548942
Heightened Def Con from 0.00548982 to 0.00548982
Heightened Def Con from 0.00549082 to 0.00549082
Heightened Def Con from 0.00549082 +++++++to 0.00549082
Heightened Def Con from 0.00549082 ++to 0.00549082
Heightened Def Con from 0.00549082 to 0.00549082
Heightened Def Con from 0.00549082 +++++++++++++++++++++++++++++to 0.00549083
Heightened Def Con from 0.00549083 to 0.00549086
Heightened Def Con from 0.00550941 to 0.00550941
Heightened Def Con from 0.00550981 to 0.00550982
Heightened Def Con from 0.00551082 +++++++++to 0.00551082
Heightened Def Con from 0.00551082 to 0.00551082
Heightened Def Con from 0.00551082 to 0.00551082
Heightened Def Con from 0.00551082 ++++++to 0.00551082
Heightened Def Con from 0.00551082 +++++++++++++++++++++++++++++to 0.00551083
Heightened Def Con from 0.00551084 to 0.00551086
Heightened Def Con from 0.00552941 to 0.00552941
Heightened Def Con from 0.00552981 to 0.00552981
Heightened Def Con from 0.00553083 to 0.00553083
Heightened Def Con from 0.00553083 +++++to 0.00553083
Heightened Def Con from 0.00553083 +++++++++++++++++++++++++++++to 0.00553084
Heightened Def Con from 0.00553084 to 0.00553084
Heightened Def Con from 0.00553092 to 0.00553093
Heightened Def Con from 0.0055494 to 0.0055494
Heightened Def Con from 0.0055498 to 0.0055498
Heightened Def Con from 0.00555083 to 0.00555083
Heightened Def Con from 0.00555083 to 0.00555083
Heightened Def Con from 0.00555083 +++to 0.00555083
Heightened Def Con from 0.00555083 +++to 0.00555083
Heightened Def Con from 0.00555083 +++++++++++++++++++++++++++++to 0.00555084
Heightened Def Con from 0.00555085 to 0.00555087
Heightened Def Con from 0.0055694 to 0.0055694
Heightened Def Con from 0.0055698 to 0.0055698
Heightened Def Con from 0.00557084 to 0.00557084
Heightened Def Con from 0.00557084 to 0.00557084
Heightened Def Con from 0.00557084 +++++++++++++++++++++++++++++to 0.00557085
Heightened Def Con from 0.00557085 to 0.00557087
Heightened Def Con from 0.00558939 to 0.0055894
Heightened Def Con from 0.00558979 to 0.0055898
Heightened Def Con from 0.00559084 +++++++++++++++++++++++++++++to 0.00559085
Heightened Def Con from 0.00559086 to 0.00559088
Heightened Def Con from 0.00560939 to 0.00560939
Heightened Def Con from 0.00560979 to 0.00560979
Heightened Def Con from 0.00561085 +to 0.00561085
Heightened Def Con from 0.00561085 to 0.00561085
Heightened Def Con from 0.00561085 +++++to 0.00561085
Heightened Def Con from 0.00561085 +to 0.00561085
Heightened Def Con from 0.00561085 +++++++++++++++++++++++++++++to 0.00561086
Heightened Def Con from 0.00561086 to 0.00561088
Heightened Def Con from 0.00562938 to 0.00562938
Heightened Def Con from 0.00562978 to 0.00562979
Heightened Def Con from 0.00563085 to 0.00563085
Heightened Def Con from 0.00563085 to 0.00563085
Heightened Def Con from 0.00563085 +++++++++++++++++++++++++++++to 0.00563086
Heightened Def Con from 0.00563087 to 0.00563089
Heightened Def Con from 0.00564938 to 0.00564938
Heightened Def Con from 0.00564977 to 0.00564978
Heightened Def Con from 0.00565086 +++++++++++++++++++++++++++++to 0.00565087
Heightened Def Con from 0.00565087 to 0.00565089
Heightened Def Con from 0.00566937 to 0.00566937
Heightened Def Con from 0.00566977 to 0.00566978
Heightened Def Con from 0.00567086 to 0.00567086
Heightened Def Con from 0.00567086 +++++++to 0.00567086
Heightened Def Con from 0.00567086 ++to 0.00567086
Heightened Def Con from 0.00567086 ++++++++++++++++++++to 0.00567086
Heightened Def Con from 0.00567086 +++++++++++++++++++++++++++++to 0.00567087
Heightened Def Con from 0.00567088 to 0.0056709
Heightened Def Con from 0.00568936 to 0.00568937
Heightened Def Con from 0.00568976 to 0.00568977
Heightened Def Con from 0.00569087 to 0.00569087
Heightened Def Con from 0.00569087 to 0.00569087
Heightened Def Con from 0.00569087 +++++++++++++++++++++++++++++to 0.00569088
Heightened Def Con from 0.00569088 to 0.00569091
Heightened Def Con from 0.00570936 to 0.00570936
Heightened Def Con from 0.00570976 to 0.00570976
Heightened Def Con from 0.00571088 +++++++++++++++++++++++++++++to 0.00571089
Heightened Def Con from 0.00571089 to 0.00571091
Heightened Def Con from 0.00572935 to 0.00572936
Heightened Def Con from 0.00572975 to 0.00572976
Heightened Def Con from 0.00573088 to 0.00573088
Heightened Def Con from 0.00573088 to 0.00573088
Heightened Def Con from 0.00573088 +++++++++++++++++++++++++++++to 0.00573089
Heightened Def Con from 0.0057309 to 0.00573092
Heightened Def Con from 0.00574935 to 0.00574935
Heightened Def Con from 0.00574975 to 0.00574975
Heightened Def Con from 0.00575089 to 0.00575089
Heightened Def Con from 0.00575089 to 0.00575089
Heightened Def Con from 0.00575089 +++++++++++++++++++++++++++++to 0.0057509
Heightened Def Con from 0.0057509 to 0.00575092
Heightened Def Con from 0.00576934 to 0.00576934
Heightened Def Con from 0.00576974 to 0.00576975
Heightened Def Con from 0.00577089 to 0.00577089
Heightened Def Con from 0.00577089 ++++to 0.00577089
Heightened Def Con from 0.00577089 ++++++++++to 0.00577089
Heightened Def Con from 0.00577089 +++++++++++++++++++++++++++++to 0.0057709
Heightened Def Con from 0.00577091 to 0.00577093
Heightened Def Con from 0.00578933 to 0.00578934
Heightened Def Con from 0.00578973 to 0.00578974
Heightened Def Con from 0.0057909 to 0.0057909
Heightened Def Con from 0.0057909 to 0.0057909
Heightened Def Con from 0.0057909 ++++++++++++++++++++++to 0.0057909
Heightened Def Con from 0.0057909 +++++++++++++++++++to 0.0057909
Heightened Def Con from 0.0057909 +++++++++++++++++++++++++++++to 0.00579091
Heightened Def Con from 0.00579092 to 0.00579094
Heightened Def Con from 0.00580933 to 0.00580933
Heightened Def Con from 0.00580973 to 0.00580973
Heightened Def Con from 0.00581091 to 0.00581091
Heightened Def Con from 0.00581091 ++++++++++++++++++++++to 0.00581091
Heightened Def Con from 0.00581091 ++++++++++++++++++++++to 0.00581091
Heightened Def Con from 0.00581091 +++++++++++++++++to 0.00581091
Heightened Def Con from 0.00581091 ++++++++++++++++++++to 0.00581091
Heightened Def Con from 0.00581091 +++++++++++++++++++to 0.00581091
Heightened Def Con from 0.00581091 +++++++++++++++++++++++++++++to 0.00581092
Heightened Def Con from 0.00581092 to 0.00581094
Heightened Def Con from 0.00582932 to 0.00582932
Heightened Def Con from 0.00582972 to 0.00582972
Heightened Def Con from 0.00583091 to 0.00583091
Heightened Def Con from 0.00583091 ++to 0.00583091
Heightened Def Con from 0.00583091 +++++++++++++++++++++++++++++to 0.00583092
Heightened Def Con from 0.00583093 to 0.00583095
Heightened Def Con from 0.00584931 to 0.00584932
Heightened Def Con from 0.00584971 to 0.00584972
Heightened Def Con from 0.00585092 ++++++to 0.00585092
Heightened Def Con from 0.00585092 to 0.00585092
Heightened Def Con from 0.00585092 +++++++++++++++++to 0.00585092
Heightened Def Con from 0.00585092 +++++++++++++++++++++++++++++to 0.00585093
Heightened Def Con from 0.00585093 to 0.00585096
Heightened Def Con from 0.00586931 to 0.00586931
Heightened Def Con from 0.00586971 to 0.00586971
Heightened Def Con from 0.00587093 ++++to 0.00587093
Heightened Def Con from 0.00587093 ++to 0.00587093
Heightened Def Con from 0.00587093 +++++++++++++++++++++++++++++to 0.00587094
Heightened Def Con from 0.00587094 to 0.00587097
Heightened Def Con from 0.0058893 to 0.0058893
Heightened Def Con from 0.0058897 to 0.0058897
Heightened Def Con from 0.00589094 to 0.00589094
Heightened Def Con from 0.00589094 +to 0.00589094
Heightened Def Con from 0.00589094 +++to 0.00589094
Heightened Def Con from 0.00589094 +++++++++++++++++++++++to 0.00589094
Heightened Def Con from 0.00589094 to 0.00589094
Heightened Def Con from 0.00589094 +++++++++++++++++to 0.00589094
Heightened Def Con from 0.00589094 +++++++++++++++++++++++++++++to 0.00589095
Heightened Def Con from 0.00589095 to 0.00589097
Heightened Def Con from 0.00590929 to 0.00590929
Heightened Def Con from 0.00590969 to 0.00590969
Heightened Def Con from 0.00591094 +to 0.00591094
Heightened Def Con from 0.00591094 +to 0.00591094
Heightened Def Con from 0.00591094 ++to 0.00591094
Heightened Def Con from 0.00591094 +++++++++++++++++++++++++++++to 0.00591095
Heightened Def Con from 0.00591096 to 0.00591098
Heightened Def Con from 0.00592928 to 0.00592928
Heightened Def Con from 0.00592968 to 0.00592969
Heightened Def Con from 0.00593095 +++++++++++++++++++++++++++++to 0.00593096
Heightened Def Con from 0.00593096 to 0.00593099
Heightened Def Con from 0.00594928 to 0.00594928
Heightened Def Con from 0.00594967 to 0.00594968
Heightened Def Con from 0.00595096 to 0.00595096
Heightened Def Con from 0.00595096 to 0.00595096
Heightened Def Con from 0.00595096 to 0.00595096
Heightened Def Con from 0.00595096 ++to 0.00595096
Heightened Def Con from 0.00595096 to 0.00595096
Heightened Def Con from 0.00595096 +++to 0.00595096
Heightened Def Con from 0.00595096 to 0.00595096
Heightened Def Con from 0.00595096 to 0.00595096
Heightened Def Con from 0.00595096 +++++++++++++++++++++++++++++to 0.00595097
Heightened Def Con from 0.00595097 to 0.005951
Heightened Def Con from 0.00596927 to 0.00596927
Heightened Def Con from 0.00596967 to 0.00596967
Heightened Def Con from 0.00597097 to 0.00597097
Heightened Def Con from 0.00597097 to 0.00597097
Heightened Def Con from 0.00597097 +++++++++++++++++++++++++++++to 0.00597098
Heightened Def Con from 0.00597098 to 0.00597101
Heightened Def Con from 0.00598926 to 0.00598926
Heightened Def Con from 0.00598966 to 0.00598966
Heightened Def Con from 0.00599098 ++to 0.00599098
Heightened Def Con from 0.00599098 +to 0.00599098
Heightened Def Con from 0.00599098 +++to 0.00599098
Heightened Def Con from 0.00599098 +++++++++++++++++++++++++++++to 0.00599099
Heightened Def Con from 0.00599099 to 0.00599101
Heightened Def Con from 0.00600925 to 0.00600925
Heightened Def Con from 0.00600965 to 0.00600965
Heightened Def Con from 0.00601099 +to 0.00601099
Heightened Def Con from 0.00601099 +to 0.00601099
Heightened Def Con from 0.00601099 ++to 0.00601099
Heightened Def Con from 0.00601099 ++++++++++++++++++++++++to 0.00601099
Heightened Def Con from 0.00601099 +++++++++++++++++to 0.00601099
Heightened Def Con from 0.00601099 +++++++++++++++++++to 0.00601099
Heightened Def Con from 0.00601099 ++++++++++++++++to 0.00601099
Heightened Def Con from 0.00601099 +++++++++++++++++++++++++++++to 0.00601099
Heightened Def Con from 0.006011 to 0.00601102
Heightened Def Con from 0.00602924 to 0.00602924
Heightened Def Con from 0.00602964 to 0.00602965
Heightened Def Con from 0.00603099 to 0.00603099
Heightened Def Con from 0.00603099 +++++++++++++++++++++++++++++to 0.006031
Heightened Def Con from 0.00603101 to 0.00603103
Heightened Def Con from 0.00604923 to 0.00604923
Heightened Def Con from 0.00604963 to 0.00604964
Heightened Def Con from 0.006051 +++to 0.006051
[...]
Heightened Def Con from 0.0178624 to 0.0178624
Heightened Def Con from 0.0178782 to 0.0178782
Heightened Def Con from 0.0178824 to 0.0178824
Heightened Def Con from 0.0178824 to 0.0178825
Heightened Def Con from 0.0178982 to 0.0178982
Heightened Def Con from 0.0179025 to 0.0179025
Heightened Def Con from 0.0179025 to 0.0179025
Heightened Def Con from 0.0179182 to 0.0179182
Heightened Def Con from 0.0179225 to 0.0179225
Heightened Def Con from 0.0179225 to 0.0179225
Heightened Def Con from 0.0179381 to 0.0179381
Heightened Def Con from 0.0179425 to 0.0179425
Heightened Def Con from 0.0179425 to 0.0179425
Heightened Def Con from 0.0179581 to 0.0179581
Heightened Def Con from 0.0179625 to 0.0179625
Heightened Def Con from 0.0179625 to 0.0179625
Heightened Def Con from 0.0179781 to 0.0179781
Heightened Def Con from 0.0179825 to 0.0179825
Heightened Def Con from 0.0179826 to 0.0179826
Heightened Def Con from 0.0179981 to 0.0179981
Heightened Def Con from 0.0180026 to 0.0180026
Heightened Def Con from 0.0180026 to 0.0180026
Heightened Def Con from 0.0180181 to 0.0180181
Heightened Def Con from 0.0180226 to 0.0180226
Heightened Def Con from 0.0180226 to 0.0180226
Heightened Def Con from 0.018038 to 0.018038
Heightened Def Con from 0.0180426 to 0.0180426
Heightened Def Con from 0.0180426 to 0.0180426
Heightened Def Con from 0.018058 to 0.018058
Heightened Def Con from 0.0180626 to 0.0180626
Heightened Def Con from 0.0180626 to 0.0180626
Heightened Def Con from 0.018078 to 0.018078
Heightened Def Con from 0.0180827 to 0.0180827
Heightened Def Con from 0.0180827 to 0.0180827
Heightened Def Con from 0.018098 to 0.018098
Heightened Def Con from 0.0181027 to 0.0181027
Heightened Def Con from 0.0181027 to 0.0181027
Heightened Def Con from 0.0181179 to 0.0181179
Heightened Def Con from 0.0181227 to 0.0181227
Heightened Def Con from 0.0181227 to 0.0181227
Heightened Def Con from 0.0181379 to 0.0181379
Heightened Def Con from 0.0181427 to 0.0181427
Heightened Def Con from 0.0181427 to 0.0181427
Heightened Def Con from 0.0181579 to 0.0181579
Heightened Def Con from 0.0181627 to 0.0181627
Heightened Def Con from 0.0181628 to 0.0181628
Heightened Def Con from 0.0181779 to 0.0181779
Heightened Def Con from 0.0181828 to 0.0181828
Heightened Def Con from 0.0181828 to 0.0181828
Heightened Def Con from 0.0181978 to 0.0181979
Heightened Def Con from 0.0182028 to 0.0182028
Heightened Def Con from 0.0182028 to 0.0182028
Heightened Def Con from 0.0182178 to 0.0182178
Heightened Def Con from 0.0182228 to 0.0182228
Heightened Def Con from 0.0182228 to 0.0182228
Heightened Def Con from 0.0182378 to 0.0182378
Heightened Def Con from 0.0182428 to 0.0182428
Heightened Def Con from 0.0182429 to 0.0182429
Heightened Def Con from 0.0182578 to 0.0182578
Heightened Def Con from 0.0182629 to 0.0182629
Heightened Def Con from 0.0182629 to 0.0182629
Heightened Def Con from 0.0182778 to 0.0182778
Heightened Def Con from 0.0182829 to 0.0182829
Heightened Def Con from 0.0182829 to 0.0182829
Heightened Def Con from 0.0182977 to 0.0182977
Heightened Def Con from 0.0183029 to 0.0183029
Heightened Def Con from 0.0183029 to 0.0183029
Heightened Def Con from 0.0183177 to 0.0183177
Heightened Def Con from 0.0183229 to 0.0183229
Heightened Def Con from 0.0183229 to 0.018323
Heightened Def Con from 0.0183377 to 0.0183377
Heightened Def Con from 0.018343 to 0.018343
Heightened Def Con from 0.018343 to 0.018343
Heightened Def Con from 0.0183577 to 0.0183577
Heightened Def Con from 0.018363 to 0.018363
Heightened Def Con from 0.018363 to 0.018363
Heightened Def Con from 0.0183776 to 0.0183776
Heightened Def Con from 0.018383 to 0.018383
Heightened Def Con from 0.018383 to 0.018383
Heightened Def Con from 0.0183976 to 0.0183976
Heightened Def Con from 0.018403 to 0.018403
Heightened Def Con from 0.018403 to 0.018403
Heightened Def Con from 0.0184176 to 0.0184176
Heightened Def Con from 0.0184231 to 0.0184231
Heightened Def Con from 0.0184231 to 0.0184231
Heightened Def Con from 0.0184376 to 0.0184376
Heightened Def Con from 0.0184431 to 0.0184431
Heightened Def Con from 0.0184431 to 0.0184431
Heightened Def Con from 0.0184575 to 0.0184575
Heightened Def Con from 0.0184631 to 0.0184631
Heightened Def Con from 0.0184631 to 0.0184631
Heightened Def Con from 0.0184775 to 0.0184775
Heightened Def Con from 0.0184831 to 0.0184831
Heightened Def Con from 0.0184831 to 0.0184831
Heightened Def Con from 0.0184975 to 0.0184975
Heightened Def Con from 0.0185031 to 0.0185032
Heightened Def Con from 0.0185032 to 0.0185032
Heightened Def Con from 0.0185175 to 0.0185175
Heightened Def Con from 0.0185232 to 0.0185232
Heightened Def Con from 0.0185232 to 0.0185232
Heightened Def Con from 0.0185374 to 0.0185374
Heightened Def Con from 0.0185432 to 0.0185432
Heightened Def Con from 0.0185432 to 0.0185432
Heightened Def Con from 0.0185574 to 0.0185574
Heightened Def Con from 0.0185632 to 0.0185632
Heightened Def Con from 0.0185632 to 0.0185632
Heightened Def Con from 0.0185636 to 0.0185636
Heightened Def Con from 0.0185774 to 0.0185774
Heightened Def Con from 0.0185832 to 0.0185833
Heightened Def Con from 0.0185833 to 0.0185833
Heightened Def Con from 0.0185974 to 0.0185974
Heightened Def Con from 0.0186033 to 0.0186033
Heightened Def Con from 0.0186033 to 0.0186033
Heightened Def Con from 0.0186173 to 0.0186173
Heightened Def Con from 0.0186233 to 0.0186233
Heightened Def Con from 0.0186233 to 0.0186233
Heightened Def Con from 0.0186373 to 0.0186373
Heightened Def Con from 0.0186433 to 0.0186433
Heightened Def Con from 0.0186433 to 0.0186433
Heightened Def Con from 0.0186573 to 0.0186573
Heightened Def Con from 0.0186633 to 0.0186634
Heightened Def Con from 0.0186634 to 0.0186634
Heightened Def Con from 0.0186773 to 0.0186773
Heightened Def Con from 0.0186834 to 0.0186834
Heightened Def Con from 0.0186834 to 0.0186834
Heightened Def Con from 0.0186972 to 0.0186972
Heightened Def Con from 0.0187034 to 0.0187034
Heightened Def Con from 0.0187034 to 0.0187034
Heightened Def Con from 0.0187172 to 0.0187172
Heightened Def Con from 0.0187234 to 0.0187234
Heightened Def Con from 0.0187234 to 0.0187234
Heightened Def Con from 0.0187372 to 0.0187372
Heightened Def Con from 0.0187434 to 0.0187435
Heightened Def Con from 0.0187435 to 0.0187435
Heightened Def Con from 0.0187572 to 0.0187572
Heightened Def Con from 0.0187635 to 0.0187635
Heightened Def Con from 0.0187635 to 0.0187635
Heightened Def Con from 0.0187771 to 0.0187771
Heightened Def Con from 0.0187835 to 0.0187835
Heightened Def Con from 0.0187835 to 0.0187835
Heightened Def Con from 0.0187971 to 0.0187971
Heightened Def Con from 0.0188035 to 0.0188035
Heightened Def Con from 0.0188035 to 0.0188035
Heightened Def Con from 0.0188171 to 0.0188171
Heightened Def Con from 0.0188235 to 0.0188236
Heightened Def Con from 0.0188236 to 0.0188236
Heightened Def Con from 0.0188371 to 0.0188371
Heightened Def Con from 0.0188436 to 0.0188436
Heightened Def Con from 0.0188436 to 0.0188436
Heightened Def Con from 0.018857 to 0.018857
Heightened Def Con from 0.0188636 to 0.0188636
Heightened Def Con from 0.0188636 to 0.0188636
Heightened Def Con from 0.018877 to 0.018877
Heightened Def Con from 0.0188836 to 0.0188836
Heightened Def Con from 0.0188836 to 0.0188836
Heightened Def Con from 0.018897 to 0.018897
Heightened Def Con from 0.0189037 to 0.0189037
Heightened Def Con from 0.0189037 to 0.0189037
Heightened Def Con from 0.018917 to 0.018917
Heightened Def Con from 0.0189237 to 0.0189237
Heightened Def Con from 0.0189237 to 0.0189237
Heightened Def Con from 0.0189364 to 0.0189364
Heightened Def Con from 0.0189369 to 0.0189369
Heightened Def Con from 0.0189437 to 0.0189437
Heightened Def Con from 0.0189437 to 0.0189437
Heightened Def Con from 0.0189569 to 0.0189569
Heightened Def Con from 0.0189637 to 0.0189637
Heightened Def Con from 0.0189637 to 0.0189637
Heightened Def Con from 0.0189769 to 0.0189769
Heightened Def Con from 0.0189838 to 0.0189838
Heightened Def Con from 0.0189838 to 0.0189838
Heightened Def Con from 0.0189969 to 0.0189969
Heightened Def Con from 0.0190038 to 0.0190038
Heightened Def Con from 0.0190038 to 0.0190038
Heightened Def Con from 0.0190168 to 0.0190168
Heightened Def Con from 0.0190238 to 0.0190238
Heightened Def Con from 0.0190238 to 0.0190238
Heightened Def Con from 0.0190368 to 0.0190368
Heightened Def Con from 0.0190438 to 0.0190438
Heightened Def Con from 0.0190438 to 0.0190438
Heightened Def Con from 0.0190568 to 0.0190568
Heightened Def Con from 0.0190639 to 0.0190639
Heightened Def Con from 0.0190639 to 0.0190639
Heightened Def Con from 0.0190768 to 0.0190768
Heightened Def Con from 0.0190839 to 0.0190839
Heightened Def Con from 0.0190839 to 0.0190839
Heightened Def Con from 0.0190967 to 0.0190967
Heightened Def Con from 0.0191039 to 0.0191039
Heightened Def Con from 0.0191039 to 0.0191039
Heightened Def Con from 0.0191167 to 0.0191167
Heightened Def Con from 0.0191239 to 0.0191239
Heightened Def Con from 0.019124 to 0.019124
Heightened Def Con from 0.0191367 to 0.0191367
Heightened Def Con from 0.019144 to 0.019144
Heightened Def Con from 0.019144 to 0.019144
Heightened Def Con from 0.0191567 to 0.0191567
Heightened Def Con from 0.019164 to 0.019164
Heightened Def Con from 0.019164 to 0.019164
Heightened Def Con from 0.0191766 to 0.0191766
Heightened Def Con from 0.019184 to 0.019184
Heightened Def Con from 0.019184 to 0.019184
Heightened Def Con from 0.0191966 to 0.0191966
Heightened Def Con from 0.019204 to 0.019204
Heightened Def Con from 0.0192041 to 0.0192041
Heightened Def Con from 0.0192166 to 0.0192166
Heightened Def Con from 0.0192241 to 0.0192241
Heightened Def Con from 0.0192241 to 0.0192241
Heightened Def Con from 0.0192365 to 0.0192366
Heightened Def Con from 0.0192441 to 0.0192441
Heightened Def Con from 0.0192441 to 0.0192441
Heightened Def Con from 0.0192565 to 0.0192565
Heightened Def Con from 0.0192641 to 0.0192641
Heightened Def Con from 0.0192641 to 0.0192641
Heightened Def Con from 0.0192765 to 0.0192765
Heightened Def Con from 0.0192842 to 0.0192842
Heightened Def Con from 0.0192842 to 0.0192842
Heightened Def Con from 0.0192965 to 0.0192965
Heightened Def Con from 0.0193042 to 0.0193042
Heightened Def Con from 0.0193042 to 0.0193042
Heightened Def Con from 0.0193164 to 0.0193164
Heightened Def Con from 0.0193242 to 0.0193242
Heightened Def Con from 0.0193242 to 0.0193242
Heightened Def Con from 0.0193364 to 0.0193364
Heightened Def Con from 0.0193442 to 0.0193442
Heightened Def Con from 0.0193442 to 0.0193442
Heightened Def Con from 0.0193564 to 0.0193564
Heightened Def Con from 0.0193643 to 0.0193643
Heightened Def Con from 0.0193643 to 0.0193643
Heightened Def Con from 0.0193764 to 0.0193764
Heightened Def Con from 0.0193843 to 0.0193843
Heightened Def Con from 0.0193843 to 0.0193843
Heightened Def Con from 0.0193963 to 0.0193963
Heightened Def Con from 0.0194043 to 0.0194043
Heightened Def Con from 0.0194043 to 0.0194043
Heightened Def Con from 0.0194163 to 0.0194163
Heightened Def Con from 0.0194243 to 0.0194243
Heightened Def Con from 0.0194243 to 0.0194244
Heightened Def Con from 0.0194363 to 0.0194363
Heightened Def Con from 0.0194444 to 0.0194444
Heightened Def Con from 0.0194444 to 0.0194444
Heightened Def Con from 0.0194562 to 0.0194562
Heightened Def Con from 0.0194563 to 0.0194563
Heightened Def Con from 0.0194644 to 0.0194644
Heightened Def Con from 0.0194644 to 0.0194644
Heightened Def Con from 0.0194762 to 0.0194762
Heightened Def Con from 0.0194844 to 0.0194844
Heightened Def Con from 0.0194844 to 0.0194844
Heightened Def Con from 0.0194962 to 0.0194962
Heightened Def Con from 0.0195044 to 0.0195045
Heightened Def Con from 0.0195045 to 0.0195045
Heightened Def Con from 0.0195162 to 0.0195162
Heightened Def Con from 0.0195361 to 0.0195361
Heightened Def Con from 0.0195561 to 0.0195561
Heightened Def Con from 0.0195761 to 0.0195761
Heightened Def Con from 0.0195761 to 0.0195761
Heightened Def Con from 0.0195961 to 0.0195961
Heightened Def Con from 0.019605 to 0.019605
Heightened Def Con from 0.019616 to 0.019616
Heightened Def Con from 0.019625 to 0.019625
Heightened Def Con from 0.019636 to 0.019636
Heightened Def Con from 0.019645 to 0.019645
Heightened Def Con from 0.019656 to 0.019656
Heightened Def Con from 0.0196651 to 0.0196651
Heightened Def Con from 0.019676 to 0.019676
Heightened Def Con from 0.0196851 to 0.0196851
Heightened Def Con from 0.0196959 to 0.0196959
Heightened Def Con from 0.0197051 to 0.0197051
Heightened Def Con from 0.0197159 to 0.0197159
Heightened Def Con from 0.0197251 to 0.0197251
Heightened Def Con from 0.0197359 to 0.0197359
Heightened Def Con from 0.0197452 to 0.0197452
Heightened Def Con from 0.0197558 to 0.0197559
Heightened Def Con from 0.0197652 to 0.0197652
Heightened Def Con from 0.0197758 to 0.0197758
Heightened Def Con from 0.0197852 to 0.0197852
Heightened Def Con from 0.0197958 to 0.0197958
Heightened Def Con from 0.0198052 to 0.0198052
Heightened Def Con from 0.0198158 to 0.0198158
Heightened Def Con from 0.0198253 to 0.0198253
Heightened Def Con from 0.0198357 to 0.0198357
Heightened Def Con from 0.0198453 to 0.0198453
Heightened Def Con from 0.0198557 to 0.0198557
Heightened Def Con from 0.0198653 to 0.0198653
Heightened Def Con from 0.0198757 to 0.0198757
Heightened Def Con from 0.0198854 to 0.0198854
Heightened Def Con from 0.0198957 to 0.0198957
Heightened Def Con from 0.0199054 to 0.0199054
Heightened Def Con from 0.0199156 to 0.0199156
Heightened Def Con from 0.0199254 to 0.0199254
Heightened Def Con from 0.0199356 to 0.0199356
Heightened Def Con from 0.0199454 to 0.0199454
Heightened Def Con from 0.0199556 to 0.0199556
Heightened Def Con from 0.0199655 to 0.0199655
Heightened Def Con from 0.0199755 to 0.0199755
Heightened Def Con from 0.0199855 to 0.0199855
Heightened Def Con from 0.0199955 to 0.0199955
Heightened Def Con from 0.0200055 to 0.0200055
Heightened Def Con from 0.0200155 to 0.0200155
Heightened Def Con from 0.0200255 to 0.0200255
Heightened Def Con from 0.0200355 to 0.0200355
Heightened Def Con from 0.0200456 to 0.0200456
Heightened Def Con from 0.0200554 to 0.0200554
Heightened Def Con from 0.0200656 to 0.0200656
Heightened Def Con from 0.0200754 to 0.0200754
Heightened Def Con from 0.0200856 to 0.0200856
Heightened Def Con from 0.0200954 to 0.0200954
Heightened Def Con from 0.0201057 to 0.0201057
Heightened Def Con from 0.0201154 to 0.0201154
Heightened Def Con from 0.0201257 to 0.0201257
Heightened Def Con from 0.0201353 to 0.0201353
Heightened Def Con from 0.0201457 to 0.0201457
Heightened Def Con from 0.0201553 to 0.0201553
Heightened Def Con from 0.0201657 to 0.0201657
Heightened Def Con from 0.0201753 to 0.0201753
Heightened Def Con from 0.0201858 to 0.0201858
Heightened Def Con from 0.0201952 to 0.0201952
Heightened Def Con from 0.0202058 to 0.0202058
Heightened Def Con from 0.0202152 to 0.0202152
Heightened Def Con from 0.0202258 to 0.0202258
Heightened Def Con from 0.0202352 to 0.0202352
Heightened Def Con from 0.0202458 to 0.0202459
Heightened Def Con from 0.0202552 to 0.0202552
Heightened Def Con from 0.0202659 to 0.0202659
Heightened Def Con from 0.0202751 to 0.0202751
Heightened Def Con from 0.0202859 to 0.0202859
Heightened Def Con from 0.0202951 to 0.0202951
Heightened Def Con from 0.0203059 to 0.0203059
Heightened Def Con from 0.0203151 to 0.0203151
Heightened Def Con from 0.020326 to 0.020326
Heightened Def Con from 0.0203351 to 0.0203351
Heightened Def Con from 0.020346 to 0.020346
Heightened Def Con from 0.020355 to 0.020355
Heightened Def Con from 0.020366 to 0.020366
Heightened Def Con from 0.020375 to 0.020375
Heightened Def Con from 0.020386 to 0.020386
Heightened Def Con from 0.020395 to 0.020395
Heightened Def Con from 0.0204061 to 0.0204061
Heightened Def Con from 0.0204149 to 0.0204149
Heightened Def Con from 0.0204261 to 0.0204261
Heightened Def Con from 0.0204461 to 0.0204461
Heightened Def Con from 0.0204661 to 0.0204661
Heightened Def Con from 0.0204862 to 0.0204862
Heightened Def Con from 0.0205062 to 0.0205062
Heightened Def Con from 0.0205144 to 0.0205144
Heightened Def Con from 0.0205262 to 0.0205262
Heightened Def Con from 0.0205344 to 0.0205344
Heightened Def Con from 0.0205344 to 0.0205344
Heightened Def Con from 0.0205463 to 0.0205463
Heightened Def Con from 0.0205544 to 0.0205544
Heightened Def Con from 0.0205544 to 0.0205544
Heightened Def Con from 0.0205663 to 0.0205663
Heightened Def Con from 0.0205743 to 0.0205743
Heightened Def Con from 0.0205743 to 0.0205744
Heightened Def Con from 0.0205863 to 0.0205863
Heightened Def Con from 0.0205943 to 0.0205943
Heightened Def Con from 0.0205943 to 0.0205943
Heightened Def Con from 0.0206063 to 0.0206063
Heightened Def Con from 0.0206143 to 0.0206143
Heightened Def Con from 0.0206143 to 0.0206143
Heightened Def Con from 0.0206264 to 0.0206264
Heightened Def Con from 0.0206343 to 0.0206343
Heightened Def Con from 0.0206343 to 0.0206343
Heightened Def Con from 0.0206464 to 0.0206464
Heightened Def Con from 0.0206542 to 0.0206542
Heightened Def Con from 0.0206542 to 0.0206542
Heightened Def Con from 0.0206664 to 0.0206664
Heightened Def Con from 0.0206742 to 0.0206742
Heightened Def Con from 0.0206742 to 0.0206742
Heightened Def Con from 0.0206864 to 0.0206864
Heightened Def Con from 0.0206942 to 0.0206942
Heightened Def Con from 0.0206942 to 0.0206942
Heightened Def Con from 0.0207065 to 0.0207065
Heightened Def Con from 0.0207142 to 0.0207142
Heightened Def Con from 0.0207142 to 0.0207142
Heightened Def Con from 0.0207265 to 0.0207265
Heightened Def Con from 0.0207341 to 0.0207341
Heightened Def Con from 0.0207341 to 0.0207341
Heightened Def Con from 0.0207465 to 0.0207465
Heightened Def Con from 0.0207541 to 0.0207541
Heightened Def Con from 0.0207541 to 0.0207541
Heightened Def Con from 0.0207665 to 0.0207666
Heightened Def Con from 0.0207741 to 0.0207741
Heightened Def Con from 0.0207741 to 0.0207741
Heightened Def Con from 0.0207866 to 0.0207866
Heightened Def Con from 0.020794 to 0.0207941
Heightened Def Con from 0.0207941 to 0.0207941
Heightened Def Con from 0.0208066 to 0.0208066
Heightened Def Con from 0.020814 to 0.020814
Heightened Def Con from 0.020814 to 0.020814
Heightened Def Con from 0.0208266 to 0.0208266
Heightened Def Con from 0.020834 to 0.020834
Heightened Def Con from 0.020834 to 0.020834
Heightened Def Con from 0.0208467 to 0.0208467
Heightened Def Con from 0.020854 to 0.020854
Heightened Def Con from 0.020854 to 0.020854
Heightened Def Con from 0.0208667 to 0.0208667
Heightened Def Con from 0.0208739 to 0.0208739
Heightened Def Con from 0.020874 to 0.020874
Heightened Def Con from 0.0208867 to 0.0208867
Heightened Def Con from 0.0208867 to 0.0208867
Heightened Def Con from 0.0208939 to 0.0208939
Heightened Def Con from 0.0208939 to 0.0208939
Heightened Def Con from 0.0209067 to 0.0209067
Heightened Def Con from 0.0209139 to 0.0209139
Heightened Def Con from 0.0209139 to 0.0209139
Heightened Def Con from 0.0209268 to 0.0209268
Heightened Def Con from 0.0209339 to 0.0209339
Heightened Def Con from 0.0209339 to 0.0209339
Heightened Def Con from 0.0209468 to 0.0209468
Heightened Def Con from 0.0209538 to 0.0209538
Heightened Def Con from 0.0209538 to 0.0209539
Heightened Def Con from 0.0209668 to 0.0209668
Heightened Def Con from 0.0209738 to 0.0209738
Heightened Def Con from 0.0209738 to 0.0209738
Heightened Def Con from 0.0209868 to 0.0209868
Heightened Def Con from 0.0209938 to 0.0209938
Heightened Def Con from 0.0209938 to 0.0209938

Date: Wed Mar 02 05:48:19 2022
Total elapsed time: 768.061 seconds.

tnom = 27
temp = 27
method = modified trap
totiter = 13780662
traniter = 13780569
tranpoints = 4897524
accept = 3479248
rejected = 1437951
matrix size = 125
fillins = 202
solver = Alternate
Thread vector: 19.5/14.1[4] 10.0/7.0[4] 3.7/2.0[4] 1.4/1.7[1]  2592/500
Matrix Compiler1: 23.67 KB object code size  6.2/5.0/[2.8]
Matrix Compiler2: 15.67 KB object code size  1.5/2.0/[1.0]

