Circuit: * C:\Users\ycay\Desktop\FullBridge_Modulations\Transformless_SP_Inverter\FullBridge_LTspice\UF3C065040K4S\Bipolar_UF3C065040K4S_DeadTime.asc

Instance "m:u4:m1:2": Length shorter than recommended for a level 3 MOSFET.
Instance "m:u4:m1:1": Length shorter than recommended for a level 3 MOSFET.
Instance "m:u3:m1:2": Length shorter than recommended for a level 3 MOSFET.
Instance "m:u3:m1:1": Length shorter than recommended for a level 3 MOSFET.
Instance "m:u2:m1:2": Length shorter than recommended for a level 3 MOSFET.
Instance "m:u2:m1:1": Length shorter than recommended for a level 3 MOSFET.
Instance "m:u1:m1:2": Length shorter than recommended for a level 3 MOSFET.
Instance "m:u1:m1:1": Length shorter than recommended for a level 3 MOSFET.
Direct Newton iteration for .op point succeeded.
Heightened Def Con from 5.31476e-006 to 5.31976e-006
Heightened Def Con from 2.53411e-005 to 2.53461e-005
Heightened Def Con from 3.52608e-005 to 3.52658e-005
Heightened Def Con from 4.51556e-005 to 4.51596e-005
Heightened Def Con from 4.51646e-005 to 4.51686e-005
Heightened Def Con from 5.52342e-005 to 5.52392e-005
Heightened Def Con from 6.51832e-005 to 6.51872e-005
Heightened Def Con from 6.51917e-005 to 6.51957e-005
Heightened Def Con from 7.52073e-005 to 7.52123e-005
Heightened Def Con from 8.54229e-005 to 8.54279e-005
Heightened Def Con from 9.51807e-005 to 9.51857e-005
Heightened Def Con from 0.00010545 to 0.000105455
Heightened Def Con from 0.000115152 to 0.000115157
Heightened Def Con from 0.000125477 to 0.000125482
Heightened Def Con from 0.000135128 to 0.000135133
Heightened Def Con from 0.000145504 to 0.000145509
Heightened Def Con from 0.0001551 to 0.000155105
Heightened Def Con from 0.000165531 to 0.000165536
Heightened Def Con from 0.000175073 to 0.000175078
Heightened Def Con from 0.000185557 to 0.000185562
Heightened Def Con from 0.000195046 to 0.000195051
Heightened Def Con from 0.000205585 to 0.00020559
Heightened Def Con from 0.000215019 to 0.000215024
Heightened Def Con from 0.000225612 to 0.000225617
Heightened Def Con from 0.000234992 to 0.000234997
Heightened Def Con from 0.000245638 to 0.000245643
Heightened Def Con from 0.000254966 to 0.000254971
Heightened Def Con from 0.000265666 to 0.000265671
Heightened Def Con from 0.000274939 to 0.000274944
Heightened Def Con from 0.000285692 to 0.000285697
Heightened Def Con from 0.000294912 to 0.000294917
Heightened Def Con from 0.000305719 to 0.000305724
Heightened Def Con from 0.000314885 to 0.00031489
Heightened Def Con from 0.000325737 to 0.000325738
Heightened Def Con from 0.000325745 to 0.00032575
Heightened Def Con from 0.000334859 to 0.000334864
Heightened Def Con from 0.000345774 to 0.000345779
Heightened Def Con from 0.000354832 to 0.000354837
Heightened Def Con from 0.000365799 to 0.000365804
Heightened Def Con from 0.000374805 to 0.00037481
Heightened Def Con from 0.000385826 to 0.000385831
Heightened Def Con from 0.000394778 to 0.000394783
Heightened Def Con from 0.000405853 to 0.000405858
Heightened Def Con from 0.000414752 to 0.000414757
Heightened Def Con from 0.000425881 to 0.000425886
Heightened Def Con from 0.000434725 to 0.00043473
Heightened Def Con from 0.000445898 to 0.000445899
Heightened Def Con from 0.000445906 to 0.000445911
Heightened Def Con from 0.000454698 to 0.000454703
Heightened Def Con from 0.000465933 to 0.000465938
Heightened Def Con from 0.000474672 to 0.000474677
Heightened Def Con from 0.00048596 to 0.000485965
Heightened Def Con from 0.000494645 to 0.00049465
Heightened Def Con from 0.000505987 to 0.000505992
Heightened Def Con from 0.000514619 to 0.000514624
Heightened Def Con from 0.000526013 to 0.000526018
Heightened Def Con from 0.000534592 to 0.000534597
Heightened Def Con from 0.00054604 to 0.000546045
Heightened Def Con from 0.000554565 to 0.00055457
Heightened Def Con from 0.000566066 to 0.000566071
Heightened Def Con from 0.000574539 to 0.000574544
Heightened Def Con from 0.000586093 to 0.000586098
Heightened Def Con from 0.000594513 to 0.000594519
Heightened Def Con from 0.000606119 to 0.000606124
Heightened Def Con from 0.000614486 to 0.000614492
Heightened Def Con from 0.000626146 to 0.000626151
Heightened Def Con from 0.00063446 to 0.000634467
Heightened Def Con from 0.000646172 to 0.000646177
Heightened Def Con from 0.000654433 to 0.000654439
Heightened Def Con from 0.000666199 to 0.000666204
Heightened Def Con from 0.000674407 to 0.000674413
Heightened Def Con from 0.000686225 to 0.00068623
Heightened Def Con from 0.000694381 to 0.000694387
Heightened Def Con from 0.000706252 to 0.000706257
Heightened Def Con from 0.000714355 to 0.000714363
Heightened Def Con from 0.000726278 to 0.000726283
Heightened Def Con from 0.000734328 to 0.000734352
Heightened Def Con from 0.000746304 to 0.000746309
Heightened Def Con from 0.00076633 to 0.000766335
Heightened Def Con from 0.000786356 to 0.000786361
Heightened Def Con from 0.000806382 to 0.000806387
Heightened Def Con from 0.000826409 to 0.000826414
Heightened Def Con from 0.000846435 to 0.00084644
Heightened Def Con from 0.000866461 to 0.000866466
Heightened Def Con from 0.000886486 to 0.000886491
Heightened Def Con from 0.000906513 to 0.000906518
Heightened Def Con from 0.000926538 to 0.000926543
Heightened Def Con from 0.000946564 to 0.000946569
Heightened Def Con from 0.00096659 to 0.000966595
Heightened Def Con from 0.000973805 to 0.000973819
Heightened Def Con from 0.000986615 to 0.00098662
Heightened Def Con from 0.000993779 to 0.000993784
Heightened Def Con from 0.000993786 to 0.00099379
Heightened Def Con from 0.00100664 to 0.00100665
Heightened Def Con from 0.00101375 to 0.00101376
Heightened Def Con from 0.00101376 to 0.00101376
Heightened Def Con from 0.00102667 to 0.00102667
Heightened Def Con from 0.00103373 to 0.00103373
Heightened Def Con from 0.00103374 to 0.00103374
Heightened Def Con from 0.00104669 to 0.0010467
Heightened Def Con from 0.0010537 to 0.00105371
Heightened Def Con from 0.00105371 to 0.00105371
Heightened Def Con from 0.00106672 to 0.00106672
Heightened Def Con from 0.00107368 to 0.00107368
Heightened Def Con from 0.00107368 to 0.00107369
Heightened Def Con from 0.00108674 to 0.00108675
Heightened Def Con from 0.00109365 to 0.00109366
Heightened Def Con from 0.00109366 to 0.00109366
Heightened Def Con from 0.00110677 to 0.00110677
Heightened Def Con from 0.00111363 to 0.00111363
Heightened Def Con from 0.00111363 to 0.00111364
Heightened Def Con from 0.00112679 to 0.0011268
Heightened Def Con from 0.0011336 to 0.0011336
Heightened Def Con from 0.00113361 to 0.00113361
Heightened Def Con from 0.00114681 to 0.00114681
Heightened Def Con from 0.00114682 to 0.00114682
Heightened Def Con from 0.00115358 to 0.00115358
Heightened Def Con from 0.00115358 to 0.00115359
Heightened Def Con from 0.00116684 to 0.00116685
Heightened Def Con from 0.00117355 to 0.00117355
Heightened Def Con from 0.00117356 to 0.00117356
Heightened Def Con from 0.00118687 to 0.00118687
Heightened Def Con from 0.00119353 to 0.00119353
Heightened Def Con from 0.00119353 to 0.00119354
Heightened Def Con from 0.00120689 to 0.0012069
Heightened Def Con from 0.0012135 to 0.0012135
Heightened Def Con from 0.00121351 to 0.00121351
Heightened Def Con from 0.00122692 to 0.00122692
Heightened Def Con from 0.00123348 to 0.00123348
Heightened Def Con from 0.00123348 to 0.00123349
Heightened Def Con from 0.00124695 to 0.00124695
Heightened Def Con from 0.00125345 to 0.00125345
Heightened Def Con from 0.00125346 to 0.00125346
Heightened Def Con from 0.00126697 to 0.00126697
Heightened Def Con from 0.00127343 to 0.00127343
Heightened Def Con from 0.00127343 to 0.00127344
Heightened Def Con from 0.00128699 to 0.001287
Heightened Def Con from 0.0012934 to 0.0012934
Heightened Def Con from 0.00129341 to 0.00129341
Heightened Def Con from 0.00130702 to 0.00130703
Heightened Def Con from 0.00131338 to 0.00131338
Heightened Def Con from 0.00131338 to 0.00131339
Heightened Def Con from 0.00132704 to 0.00132705
Heightened Def Con from 0.00133335 to 0.00133336
Heightened Def Con from 0.00133336 to 0.00133336
Heightened Def Con from 0.00134707 to 0.00134707
Heightened Def Con from 0.00135333 to 0.00135333
Heightened Def Con from 0.00135334 to 0.00135334
Heightened Def Con from 0.00136709 to 0.0013671
Heightened Def Con from 0.0013733 to 0.00137331
Heightened Def Con from 0.00137331 to 0.00137332
Heightened Def Con from 0.00138712 to 0.00138712
Heightened Def Con from 0.00139328 to 0.00139328
Heightened Def Con from 0.00139329 to 0.00139329
Heightened Def Con from 0.00140714 to 0.00140715
Heightened Def Con from 0.00141325 to 0.00141326
Heightened Def Con from 0.00141326 to 0.00141327
Heightened Def Con from 0.00142717 to 0.00142717
Heightened Def Con from 0.00143323 to 0.00143323
Heightened Def Con from 0.00143324 to 0.00143324
Heightened Def Con from 0.00144719 to 0.0014472
Heightened Def Con from 0.00145321 to 0.00145321
Heightened Def Con from 0.00145321 to 0.00145322
Heightened Def Con from 0.00146721 to 0.00146721
Heightened Def Con from 0.00146721 to 0.00146722
Heightened Def Con from 0.00147318 to 0.00147319
Heightened Def Con from 0.00147319 to 0.00147319
Heightened Def Con from 0.00148723 to 0.00148723
Heightened Def Con from 0.00148724 to 0.00148724
Heightened Def Con from 0.00149316 to 0.00149316
Heightened Def Con from 0.00149317 to 0.00149317
Heightened Def Con from 0.00150726 to 0.00150727
Heightened Def Con from 0.00151313 to 0.00151314
Heightened Def Con from 0.00151314 to 0.00151315
Heightened Def Con from 0.00152729 to 0.00152729
Heightened Def Con from 0.00153311 to 0.00153311
Heightened Def Con from 0.00153312 to 0.00153312
Heightened Def Con from 0.00154731 to 0.00154732
Heightened Def Con from 0.00155309 to 0.00155309
Heightened Def Con from 0.00155309 to 0.0015531
Heightened Def Con from 0.00156733 to 0.00156734
Heightened Def Con from 0.00157306 to 0.00157307
Heightened Def Con from 0.00157307 to 0.00157307
Heightened Def Con from 0.00158736 to 0.00158736
Heightened Def Con from 0.00159304 to 0.00159304
Heightened Def Con from 0.00159305 to 0.00159305
Heightened Def Con from 0.00160738 to 0.00160739
Heightened Def Con from 0.00161301 to 0.00161302
Heightened Def Con from 0.00161302 to 0.00161303
Heightened Def Con from 0.00162741 to 0.00162741
Heightened Def Con from 0.00163299 to 0.001633
Heightened Def Con from 0.001633 to 0.001633
Heightened Def Con from 0.00164743 to 0.00164743
Heightened Def Con from 0.00165297 to 0.00165297
Heightened Def Con from 0.00165298 to 0.00165298
Heightened Def Con from 0.00166745 to 0.00166746
Heightened Def Con from 0.00167294 to 0.00167295
Heightened Def Con from 0.00167295 to 0.00167296
Heightened Def Con from 0.00168748 to 0.00168748
Heightened Def Con from 0.00169292 to 0.00169293
Heightened Def Con from 0.00169293 to 0.00169293
Heightened Def Con from 0.0017075 to 0.0017075
Heightened Def Con from 0.0017129 to 0.0017129
Heightened Def Con from 0.00171291 to 0.00171291
Heightened Def Con from 0.00172752 to 0.00172753
Heightened Def Con from 0.00173288 to 0.00173288
Heightened Def Con from 0.00173288 to 0.00173289
Heightened Def Con from 0.00174755 to 0.00174755
Heightened Def Con from 0.00175285 to 0.00175286
Heightened Def Con from 0.00175286 to 0.00175286
Heightened Def Con from 0.00176757 to 0.00176757
Heightened Def Con from 0.00177283 to 0.00177283
Heightened Def Con from 0.00177284 to 0.00177284
Heightened Def Con from 0.00178759 to 0.0017876
Heightened Def Con from 0.00179281 to 0.00179281
Heightened Def Con from 0.00179282 to 0.00179282
Heightened Def Con from 0.00180761 to 0.00180762
Heightened Def Con from 0.00181278 to 0.00181279
Heightened Def Con from 0.00181279 to 0.0018128
Heightened Def Con from 0.00182764 to 0.00182764
Heightened Def Con from 0.00183276 to 0.00183277
Heightened Def Con from 0.00183277 to 0.00183277
Heightened Def Con from 0.00184766 to 0.00184766
Heightened Def Con from 0.00185274 to 0.00185274
Heightened Def Con from 0.00185275 to 0.00185275
Heightened Def Con from 0.00186768 to 0.00186769
Heightened Def Con from 0.00187272 to 0.00187272
Heightened Def Con from 0.00187273 to 0.00187273
Heightened Def Con from 0.0018877 to 0.0018877
Heightened Def Con from 0.0018877 to 0.00188771
Heightened Def Con from 0.00189269 to 0.0018927
Heightened Def Con from 0.0018927 to 0.00189271
Heightened Def Con from 0.00190773 to 0.00190773
Heightened Def Con from 0.00191267 to 0.00191267
Heightened Def Con from 0.00191268 to 0.00191268
Heightened Def Con from 0.00192775 to 0.00192775
Heightened Def Con from 0.00193265 to 0.00193265
Heightened Def Con from 0.00193266 to 0.00193266
Heightened Def Con from 0.00194777 to 0.00194778
Heightened Def Con from 0.00195263 to 0.00195263
Heightened Def Con from 0.00195264 to 0.00195264
Heightened Def Con from 0.00196779 to 0.0019678
Heightened Def Con from 0.00197261 to 0.00197261
Heightened Def Con from 0.00197261 to 0.00197262
Heightened Def Con from 0.00198781 to 0.00198782
Heightened Def Con from 0.00199258 to 0.00199259
Heightened Def Con from 0.00199259 to 0.0019926
Heightened Def Con from 0.00200784 to 0.00200784
Heightened Def Con from 0.00201256 to 0.00201257
Heightened Def Con from 0.00201257 to 0.00201258
Heightened Def Con from 0.00202785 to 0.00202785
Heightened Def Con from 0.00202786 to 0.00202786
Heightened Def Con from 0.00203254 to 0.00203255
Heightened Def Con from 0.00203255 to 0.00203255
Heightened Def Con from 0.00204788 to 0.00204789
Heightened Def Con from 0.00205252 to 0.00205252
Heightened Def Con from 0.00205253 to 0.00205253
Heightened Def Con from 0.0020679 to 0.00206791
Heightened Def Con from 0.0020725 to 0.0020725
Heightened Def Con from 0.00207251 to 0.00207251
Heightened Def Con from 0.00208792 to 0.00208793
Heightened Def Con from 0.00209248 to 0.00209248
Heightened Def Con from 0.00209249 to 0.00209249
Heightened Def Con from 0.00210794 to 0.00210795
Heightened Def Con from 0.00211245 to 0.00211246
Heightened Def Con from 0.00211246 to 0.00211247
Heightened Def Con from 0.00212796 to 0.00212796
Heightened Def Con from 0.00212797 to 0.00212797
Heightened Def Con from 0.00213243 to 0.00213244
Heightened Def Con from 0.00213244 to 0.00213245
Heightened Def Con from 0.00214799 to 0.00214799
Heightened Def Con from 0.00215241 to 0.00215242
Heightened Def Con from 0.00215242 to 0.00215243
Heightened Def Con from 0.00216801 to 0.00216801
Heightened Def Con from 0.00217239 to 0.0021724
Heightened Def Con from 0.0021724 to 0.0021724
Heightened Def Con from 0.00218802 to 0.00218802
Heightened Def Con from 0.00218803 to 0.00218803
Heightened Def Con from 0.00219237 to 0.00219237
Heightened Def Con from 0.00219238 to 0.00219238
Heightened Def Con from 0.00220805 to 0.00220805
Heightened Def Con from 0.00221235 to 0.00221235
Heightened Def Con from 0.00221236 to 0.00221236
Heightened Def Con from 0.00222807 to 0.00222807
Heightened Def Con from 0.00223233 to 0.00223233
Heightened Def Con from 0.00223234 to 0.00223234
Heightened Def Con from 0.00224809 to 0.0022481
Heightened Def Con from 0.00225231 to 0.00225231
Heightened Def Con from 0.00225232 to 0.00225232
Heightened Def Con from 0.00226811 to 0.00226812
Heightened Def Con from 0.00227229 to 0.00227229
Heightened Def Con from 0.0022723 to 0.0022723
Heightened Def Con from 0.00228813 to 0.00228814
Heightened Def Con from 0.00229227 to 0.00229227
Heightened Def Con from 0.00229228 to 0.00229228
Heightened Def Con from 0.00230815 to 0.00230816
Heightened Def Con from 0.00231225 to 0.00231225
Heightened Def Con from 0.00231226 to 0.00231226
Heightened Def Con from 0.00232817 to 0.00232818
Heightened Def Con from 0.00233223 to 0.00233223
Heightened Def Con from 0.00233224 to 0.00233224
Heightened Def Con from 0.00234819 to 0.0023482
Heightened Def Con from 0.00235221 to 0.00235221
Heightened Def Con from 0.00235222 to 0.00235222
Heightened Def Con from 0.00236821 to 0.00236822
Heightened Def Con from 0.00237219 to 0.00237219
Heightened Def Con from 0.0023722 to 0.0023722
Heightened Def Con from 0.00238823 to 0.00238824
Heightened Def Con from 0.00239217 to 0.00239217
Heightened Def Con from 0.00239218 to 0.00239218
Heightened Def Con from 0.00240825 to 0.00240826
Heightened Def Con from 0.00241215 to 0.00241215
Heightened Def Con from 0.00241216 to 0.00241216
Heightened Def Con from 0.00242827 to 0.00242828
Heightened Def Con from 0.00243213 to 0.00243213
Heightened Def Con from 0.00243214 to 0.00243214
Heightened Def Con from 0.00244828 to 0.00244828
Heightened Def Con from 0.00244829 to 0.00244829
Heightened Def Con from 0.00245211 to 0.00245211
Heightened Def Con from 0.00245212 to 0.00245212
Heightened Def Con from 0.00246831 to 0.00246831
Heightened Def Con from 0.00247209 to 0.00247209
Heightened Def Con from 0.0024721 to 0.0024721
Heightened Def Con from 0.00248833 to 0.00248833
Heightened Def Con from 0.00249207 to 0.00249208
Heightened Def Con from 0.00249208 to 0.00249209
Heightened Def Con from 0.00250835 to 0.00250835
Heightened Def Con from 0.00251205 to 0.00251206
Heightened Def Con from 0.00251206 to 0.00251207
Heightened Def Con from 0.00252837 to 0.00252837
Heightened Def Con from 0.00253203 to 0.00253204
Heightened Def Con from 0.00253204 to 0.00253205
Heightened Def Con from 0.00254839 to 0.00254839
Heightened Def Con from 0.00255201 to 0.00255202
Heightened Def Con from 0.00255202 to 0.00255203
Heightened Def Con from 0.00256841 to 0.00256841
Heightened Def Con from 0.002572 to 0.002572
Heightened Def Con from 0.00257201 to 0.00257201
Heightened Def Con from 0.00258842 to 0.00258843
Heightened Def Con from 0.00259198 to 0.00259198
Heightened Def Con from 0.00259199 to 0.00259199
Heightened Def Con from 0.00260844 to 0.00260845
Heightened Def Con from 0.00261196 to 0.00261196
Heightened Def Con from 0.00261197 to 0.00261197
Heightened Def Con from 0.00262846 to 0.00262846
Heightened Def Con from 0.00263194 to 0.00263195
Heightened Def Con from 0.00263195 to 0.00263195
Heightened Def Con from 0.00264848 to 0.00264848
Heightened Def Con from 0.00265192 to 0.00265193
Heightened Def Con from 0.00265193 to 0.00265194
Heightened Def Con from 0.0026685 to 0.0026685
Heightened Def Con from 0.0026719 to 0.00267191
Heightened Def Con from 0.00267191 to 0.00267192
Heightened Def Con from 0.00268851 to 0.00268851
Heightened Def Con from 0.00268851 to 0.00268852
Heightened Def Con from 0.00269189 to 0.00269189
Heightened Def Con from 0.0026919 to 0.0026919
Heightened Def Con from 0.00270852 to 0.00270852
Heightened Def Con from 0.00270853 to 0.00270854
Heightened Def Con from 0.00271187 to 0.00271187
Heightened Def Con from 0.00271188 to 0.00271188
Heightened Def Con from 0.00272854 to 0.00272854
Heightened Def Con from 0.00272855 to 0.00272855
Heightened Def Con from 0.00273185 to 0.00273186
Heightened Def Con from 0.00273186 to 0.00273186
Heightened Def Con from 0.00274857 to 0.00274857
Heightened Def Con from 0.00275183 to 0.00275184
Heightened Def Con from 0.00275184 to 0.00275185
Heightened Def Con from 0.00276858 to 0.00276859
Heightened Def Con from 0.00277182 to 0.00277182
Heightened Def Con from 0.00277183 to 0.00277183
Heightened Def Con from 0.0027886 to 0.00278861
Heightened Def Con from 0.0027918 to 0.0027918
Heightened Def Con from 0.00279181 to 0.00279181
Heightened Def Con from 0.00280862 to 0.00280862
Heightened Def Con from 0.00281178 to 0.00281179
Heightened Def Con from 0.00281179 to 0.0028118
Heightened Def Con from 0.00282864 to 0.00282864
Heightened Def Con from 0.00283176 to 0.00283177
Heightened Def Con from 0.00283177 to 0.00283178
Heightened Def Con from 0.00284865 to 0.00284866
Heightened Def Con from 0.00285175 to 0.00285175
Heightened Def Con from 0.00285176 to 0.00285176
Heightened Def Con from 0.00286866 to 0.00286866
Heightened Def Con from 0.00286867 to 0.00286867
Heightened Def Con from 0.00287173 to 0.00287174
Heightened Def Con from 0.00287174 to 0.00287175
Heightened Def Con from 0.00288869 to 0.00288869
Heightened Def Con from 0.00289171 to 0.00289172
Heightened Def Con from 0.00289172 to 0.00289173
Heightened Def Con from 0.00290869 to 0.0029087
Heightened Def Con from 0.0029087 to 0.00290871
Heightened Def Con from 0.0029117 to 0.0029117
Heightened Def Con from 0.00291171 to 0.00291171
Heightened Def Con from 0.00292872 to 0.00292872
Heightened Def Con from 0.00293168 to 0.00293169
Heightened Def Con from 0.00293169 to 0.0029317
Heightened Def Con from 0.00294874 to 0.00294874
Heightened Def Con from 0.00295167 to 0.00295167
Heightened Def Con from 0.00295168 to 0.00295168
Heightened Def Con from 0.00296875 to 0.00296876
Heightened Def Con from 0.00297165 to 0.00297165
Heightened Def Con from 0.00297166 to 0.00297166
Heightened Def Con from 0.00298877 to 0.00298877
Heightened Def Con from 0.00299163 to 0.00299164
Heightened Def Con from 0.00299164 to 0.00299165
Heightened Def Con from 0.00300878 to 0.00300879
Heightened Def Con from 0.00301162 to 0.00301162
Heightened Def Con from 0.00301163 to 0.00301163
Heightened Def Con from 0.0030288 to 0.0030288
Heightened Def Con from 0.0030316 to 0.00303161
Heightened Def Con from 0.00303161 to 0.00303162
Heightened Def Con from 0.00304881 to 0.00304882
Heightened Def Con from 0.00305159 to 0.00305159
Heightened Def Con from 0.0030516 to 0.0030516
Heightened Def Con from 0.00306882 to 0.00306882
Heightened Def Con from 0.00306883 to 0.00306884
Heightened Def Con from 0.00307157 to 0.00307158
Heightened Def Con from 0.00307158 to 0.00307159
Heightened Def Con from 0.00308885 to 0.00308885
Heightened Def Con from 0.00309156 to 0.00309156
Heightened Def Con from 0.00309157 to 0.00309157
Heightened Def Con from 0.00310886 to 0.00310887
Heightened Def Con from 0.00311154 to 0.00311154
Heightened Def Con from 0.00311155 to 0.00311155
Heightened Def Con from 0.00312888 to 0.00312888
Heightened Def Con from 0.00313153 to 0.00313153
Heightened Def Con from 0.00313154 to 0.00313154
Heightened Def Con from 0.00314889 to 0.0031489
Heightened Def Con from 0.00315151 to 0.00315152
Heightened Def Con from 0.00315152 to 0.00315152
Heightened Def Con from 0.00316891 to 0.00316891
Heightened Def Con from 0.0031715 to 0.0031715
Heightened Def Con from 0.00317151 to 0.00317151
Heightened Def Con from 0.00318892 to 0.00318893
Heightened Def Con from 0.00319148 to 0.00319149
Heightened Def Con from 0.00319149 to 0.0031915
Heightened Def Con from 0.00320894 to 0.00320894
Heightened Def Con from 0.00321147 to 0.00321147
Heightened Def Con from 0.00321148 to 0.00321148
Heightened Def Con from 0.00322895 to 0.00322895
Heightened Def Con from 0.00323145 to 0.00323146
Heightened Def Con from 0.00323146 to 0.00323147
Heightened Def Con from 0.00324896 to 0.00324897
Heightened Def Con from 0.00325144 to 0.00325144
Heightened Def Con from 0.00325145 to 0.00325145
Heightened Def Con from 0.00326898 to 0.00326898
Heightened Def Con from 0.00327142 to 0.00327143
Heightened Def Con from 0.00327143 to 0.00327144
Heightened Def Con from 0.00328899 to 0.003289
Heightened Def Con from 0.00329141 to 0.00329142
Heightened Def Con from 0.00329142 to 0.00329142
Heightened Def Con from 0.003309 to 0.00330901
Heightened Def Con from 0.0033114 to 0.0033114
Heightened Def Con from 0.00331141 to 0.00331141
Heightened Def Con from 0.00332902 to 0.00332902
Heightened Def Con from 0.00333138 to 0.00333139
Heightened Def Con from 0.00333139 to 0.0033314
Heightened Def Con from 0.00334903 to 0.00334904
Heightened Def Con from 0.00335137 to 0.00335137
Heightened Def Con from 0.00335138 to 0.00335138
Heightened Def Con from 0.00336904 to 0.00336905
Heightened Def Con from 0.00337136 to 0.00337136
Heightened Def Con from 0.00337137 to 0.00337137
Heightened Def Con from 0.00338906 to 0.00338906
Heightened Def Con from 0.00339134 to 0.00339135
Heightened Def Con from 0.00339135 to 0.00339136
Heightened Def Con from 0.00340907 to 0.00340908
Heightened Def Con from 0.00341133 to 0.00341134
Heightened Def Con from 0.00341134 to 0.00341135
Heightened Def Con from 0.00342908 to 0.00342909
Heightened Def Con from 0.00343132 to 0.00343132
Heightened Def Con from 0.00343133 to 0.00343133
Heightened Def Con from 0.0034491 to 0.0034491
Heightened Def Con from 0.00345131 to 0.00345131
Heightened Def Con from 0.00345132 to 0.00345132
Heightened Def Con from 0.00346911 to 0.00346911
Heightened Def Con from 0.00347129 to 0.0034713
Heightened Def Con from 0.0034713 to 0.00347131
Heightened Def Con from 0.00348912 to 0.00348913
Heightened Def Con from 0.00349128 to 0.00349128
Heightened Def Con from 0.00349129 to 0.00349129
Heightened Def Con from 0.00350913 to 0.00350914
Heightened Def Con from 0.00351127 to 0.00351127
Heightened Def Con from 0.00351128 to 0.00351128
Heightened Def Con from 0.00352915 to 0.00352915
Heightened Def Con from 0.00353126 to 0.00353126
Heightened Def Con from 0.00353127 to 0.00353127
Heightened Def Con from 0.00354916 to 0.00354916
Heightened Def Con from 0.00355124 to 0.00355125
Heightened Def Con from 0.00355125 to 0.00355126
Heightened Def Con from 0.00356917 to 0.00356917
Heightened Def Con from 0.00357123 to 0.00357124
Heightened Def Con from 0.00357124 to 0.00357125
Heightened Def Con from 0.00358918 to 0.00358919
Heightened Def Con from 0.00359122 to 0.00359123
Heightened Def Con from 0.00359123 to 0.00359124
Heightened Def Con from 0.00360919 to 0.0036092
Heightened Def Con from 0.00361121 to 0.00361121
Heightened Def Con from 0.00361122 to 0.00361122
Heightened Def Con from 0.0036292 to 0.00362921
Heightened Def Con from 0.0036312 to 0.0036312
Heightened Def Con from 0.00363121 to 0.00363121
Heightened Def Con from 0.00364922 to 0.00364922
Heightened Def Con from 0.00365119 to 0.00365119
Heightened Def Con from 0.0036512 to 0.0036512
Heightened Def Con from 0.00366923 to 0.00366923
Heightened Def Con from 0.00367118 to 0.00367118
Heightened Def Con from 0.00367119 to 0.00367119
Heightened Def Con from 0.00368924 to 0.00368924
Heightened Def Con from 0.00369117 to 0.00369117
Heightened Def Con from 0.00369118 to 0.00369118
Heightened Def Con from 0.00370925 to 0.00370925
Heightened Def Con from 0.00371115 to 0.00371116
Heightened Def Con from 0.00371116 to 0.00371117
Heightened Def Con from 0.00372925 to 0.00372925
Heightened Def Con from 0.00372926 to 0.00372926
Heightened Def Con from 0.00373114 to 0.00373115
Heightened Def Con from 0.00373115 to 0.00373116
Heightened Def Con from 0.00374927 to 0.00374927
Heightened Def Con from 0.00375113 to 0.00375114
Heightened Def Con from 0.00375114 to 0.00375115
Heightened Def Con from 0.00376928 to 0.00376928
Heightened Def Con from 0.00377112 to 0.00377113
Heightened Def Con from 0.00377113 to 0.00377114
Heightened Def Con from 0.00378929 to 0.00378929
Heightened Def Con from 0.00379111 to 0.00379112
Heightened Def Con from 0.00379112 to 0.00379113
Heightened Def Con from 0.0038093 to 0.0038093
Heightened Def Con from 0.0038111 to 0.00381111
Heightened Def Con from 0.00381111 to 0.00381112
Heightened Def Con from 0.00382931 to 0.00382931
Heightened Def Con from 0.00383109 to 0.0038311
Heightened Def Con from 0.0038311 to 0.00383111
Heightened Def Con from 0.00384932 to 0.00384932
Heightened Def Con from 0.00385108 to 0.00385109
Heightened Def Con from 0.00385109 to 0.0038511
Heightened Def Con from 0.00386933 to 0.00386933
Heightened Def Con from 0.00387108 to 0.00387108
Heightened Def Con from 0.00387109 to 0.00387109
Heightened Def Con from 0.00388934 to 0.00388934
Heightened Def Con from 0.00389107 to 0.00389107
Heightened Def Con from 0.00389108 to 0.00389108
Heightened Def Con from 0.00390935 to 0.00390935
Heightened Def Con from 0.00391106 to 0.00391106
Heightened Def Con from 0.00391107 to 0.00391107
Heightened Def Con from 0.00392936 to 0.00392936
Heightened Def Con from 0.00393105 to 0.00393105
Heightened Def Con from 0.00393106 to 0.00393106
Heightened Def Con from 0.00394936 to 0.00394937
Heightened Def Con from 0.00395104 to 0.00395104
Heightened Def Con from 0.00395105 to 0.00395105
Heightened Def Con from 0.00396937 to 0.00396938
Heightened Def Con from 0.00397103 to 0.00397103
Heightened Def Con from 0.00397104 to 0.00397104
Heightened Def Con from 0.00398938 to 0.00398939
Heightened Def Con from 0.00399102 to 0.00399103
Heightened Def Con from 0.00399103 to 0.00399104
Heightened Def Con from 0.00400939 to 0.00400939
Heightened Def Con from 0.00401101 to 0.00401102
Heightened Def Con from 0.00401102 to 0.00401103
Heightened Def Con from 0.0040294 to 0.0040294
Heightened Def Con from 0.00403101 to 0.00403101
Heightened Def Con from 0.00403102 to 0.00403102
Heightened Def Con from 0.00404941 to 0.00404941
Heightened Def Con from 0.004051 to 0.004051
Heightened Def Con from 0.00405101 to 0.00405101
Heightened Def Con from 0.00406941 to 0.00406942
Heightened Def Con from 0.00407099 to 0.00407099
Heightened Def Con from 0.004071 to 0.004071
Heightened Def Con from 0.00408942 to 0.00408943
Heightened Def Con from 0.00409098 to 0.00409099
Heightened Def Con from 0.00409099 to 0.004091
Heightened Def Con from 0.00410943 to 0.00410943
Heightened Def Con from 0.00411097 to 0.00411098
Heightened Def Con from 0.00411098 to 0.00411099
Heightened Def Con from 0.00412944 to 0.00412944
Heightened Def Con from 0.00413097 to 0.00413097
Heightened Def Con from 0.00413098 to 0.00413098
Heightened Def Con from 0.00414944 to 0.00414945
Heightened Def Con from 0.00415096 to 0.00415096
Heightened Def Con from 0.00415097 to 0.00415097
Heightened Def Con from 0.00416945 to 0.00416946
Heightened Def Con from 0.00417095 to 0.00417096
Heightened Def Con from 0.00417096 to 0.00417097
Heightened Def Con from 0.00418946 to 0.00418946
Heightened Def Con from 0.00419095 to 0.00419095
Heightened Def Con from 0.00419096 to 0.00419096
Heightened Def Con from 0.00420946 to 0.00420947
Heightened Def Con from 0.00421094 to 0.00421094
Heightened Def Con from 0.00421095 to 0.00421095
Heightened Def Con from 0.00422947 to 0.00422948
Heightened Def Con from 0.00423093 to 0.00423094
Heightened Def Con from 0.00423094 to 0.00423095
Heightened Def Con from 0.00424948 to 0.00424948
Heightened Def Con from 0.00425093 to 0.00425093
Heightened Def Con from 0.00425094 to 0.00425094
Heightened Def Con from 0.00426948 to 0.00426949
Heightened Def Con from 0.00427092 to 0.00427092
Heightened Def Con from 0.00427093 to 0.00427093
Heightened Def Con from 0.00428949 to 0.00428949
Heightened Def Con from 0.00429091 to 0.00429092
Heightened Def Con from 0.00429092 to 0.00429093
Heightened Def Con from 0.00430949 to 0.0043095
Heightened Def Con from 0.00431091 to 0.00431091
Heightened Def Con from 0.00431092 to 0.00431092
Heightened Def Con from 0.0043295 to 0.00432951
Heightened Def Con from 0.0043309 to 0.00433091
Heightened Def Con from 0.00433091 to 0.00433092
Heightened Def Con from 0.00434951 to 0.00434951
Heightened Def Con from 0.0043509 to 0.0043509
Heightened Def Con from 0.00435091 to 0.00435091
Heightened Def Con from 0.00436951 to 0.00436952
Heightened Def Con from 0.00437089 to 0.0043709
Heightened Def Con from 0.0043709 to 0.00437091
Heightened Def Con from 0.00438952 to 0.00438952
Heightened Def Con from 0.00439089 to 0.00439089
Heightened Def Con from 0.0043909 to 0.0043909
Heightened Def Con from 0.00440952 to 0.00440953
Heightened Def Con from 0.00441088 to 0.00441089
Heightened Def Con from 0.00441089 to 0.0044109
Heightened Def Con from 0.00442953 to 0.00442953
Heightened Def Con from 0.00443088 to 0.00443088
Heightened Def Con from 0.00443089 to 0.00443089
Heightened Def Con from 0.00444953 to 0.00444954
Heightened Def Con from 0.00445087 to 0.00445088
Heightened Def Con from 0.00445088 to 0.00445089
Heightened Def Con from 0.00446954 to 0.00446954
Heightened Def Con from 0.00447087 to 0.00447087
Heightened Def Con from 0.00447088 to 0.00447088
Heightened Def Con from 0.00448954 to 0.00448955
Heightened Def Con from 0.00449086 to 0.00449087
Heightened Def Con from 0.00449087 to 0.00449088
Heightened Def Con from 0.00450954 to 0.00450954
Heightened Def Con from 0.00450954 to 0.00450955
Heightened Def Con from 0.00451086 to 0.00451086
Heightened Def Con from 0.00451087 to 0.00451087
Heightened Def Con from 0.00452955 to 0.00452955
Heightened Def Con from 0.00453085 to 0.00453086
Heightened Def Con from 0.00453086 to 0.00453087
Heightened Def Con from 0.00454955 to 0.00454956
Heightened Def Con from 0.00455085 to 0.00455085
Heightened Def Con from 0.00455086 to 0.00455086
Heightened Def Con from 0.00456956 to 0.00456956
Heightened Def Con from 0.00457085 to 0.00457085
Heightened Def Con from 0.00457086 to 0.00457086
Heightened Def Con from 0.00458956 to 0.00458957
Heightened Def Con from 0.00459084 to 0.00459085
Heightened Def Con from 0.00459085 to 0.00459086
Heightened Def Con from 0.00460956 to 0.00460957
Heightened Def Con from 0.00461084 to 0.00461084
Heightened Def Con from 0.00461085 to 0.00461085
Heightened Def Con from 0.00462957 to 0.00462957
Heightened Def Con from 0.00463084 to 0.00463084
Heightened Def Con from 0.00463085 to 0.00463085
Heightened Def Con from 0.00464957 to 0.00464957
Heightened Def Con from 0.00465083 to 0.00465084
Heightened Def Con from 0.00465084 to 0.00465085
Heightened Def Con from 0.00466957 to 0.00466958
Heightened Def Con from 0.00467083 to 0.00467084
Heightened Def Con from 0.00467084 to 0.00467085
Heightened Def Con from 0.00468958 to 0.00468958
Heightened Def Con from 0.00469083 to 0.00469083
Heightened Def Con from 0.00469084 to 0.00469084
Heightened Def Con from 0.00470958 to 0.00470958
Heightened Def Con from 0.00471083 to 0.00471083
Heightened Def Con from 0.00471084 to 0.00471084
Heightened Def Con from 0.00472958 to 0.00472958
Heightened Def Con from 0.00473082 to 0.00473083
Heightened Def Con from 0.00473083 to 0.00473084
Heightened Def Con from 0.00474958 to 0.00474959
Heightened Def Con from 0.00475082 to 0.00475083
Heightened Def Con from 0.00475083 to 0.00475084
Heightened Def Con from 0.00476958 to 0.00476959
Heightened Def Con from 0.00477082 to 0.00477082
Heightened Def Con from 0.00477083 to 0.00477083
Heightened Def Con from 0.00478959 to 0.00478959
Heightened Def Con from 0.00479082 to 0.00479082
Heightened Def Con from 0.00479083 to 0.00479083
Heightened Def Con from 0.00480959 to 0.00480959
Heightened Def Con from 0.00481082 to 0.00481082
Heightened Def Con from 0.00481083 to 0.00481083
Heightened Def Con from 0.00482959 to 0.00482959
Heightened Def Con from 0.00483081 to 0.00483082
Heightened Def Con from 0.00483082 to 0.00483083
Heightened Def Con from 0.00484959 to 0.0048496
Heightened Def Con from 0.00485081 to 0.00485082
Heightened Def Con from 0.00485082 to 0.00485083
Heightened Def Con from 0.00486959 to 0.0048696
Heightened Def Con from 0.00487081 to 0.00487082
Heightened Def Con from 0.00487082 to 0.00487083
Heightened Def Con from 0.00488959 to 0.0048896
Heightened Def Con from 0.00489081 to 0.00489081
Heightened Def Con from 0.00489082 to 0.00489082
Heightened Def Con from 0.00490959 to 0.0049096
Heightened Def Con from 0.00491081 to 0.00491081
Heightened Def Con from 0.00491082 to 0.00491082
Heightened Def Con from 0.00492959 to 0.0049296
Heightened Def Con from 0.00493081 to 0.00493081
Heightened Def Con from 0.00493082 to 0.00493082
Heightened Def Con from 0.0049496 to 0.0049496
Heightened Def Con from 0.00495081 to 0.00495081
Heightened Def Con from 0.00495082 to 0.00495082
Heightened Def Con from 0.0049696 to 0.0049696
Heightened Def Con from 0.00497081 to 0.00497081
Heightened Def Con from 0.00497082 to 0.00497082
Heightened Def Con from 0.0049896 to 0.0049896
Heightened Def Con from 0.00499081 to 0.00499081
Heightened Def Con from 0.00499082 to 0.00499082
Heightened Def Con from 0.0050096 to 0.0050096
Heightened Def Con from 0.00501081 to 0.00501081
Heightened Def Con from 0.00501082 to 0.00501082
Heightened Def Con from 0.0050296 to 0.0050296
Heightened Def Con from 0.00503081 to 0.00503081
Heightened Def Con from 0.00503082 to 0.00503082
Heightened Def Con from 0.0050496 to 0.0050496
Heightened Def Con from 0.00505081 to 0.00505081
Heightened Def Con from 0.00505082 to 0.00505082
Heightened Def Con from 0.00506959 to 0.0050696
Heightened Def Con from 0.00507081 to 0.00507081
Heightened Def Con from 0.00507082 to 0.00507082
Heightened Def Con from 0.00508959 to 0.0050896
Heightened Def Con from 0.00509081 to 0.00509081
Heightened Def Con from 0.00509082 to 0.00509082
Heightened Def Con from 0.00510959 to 0.0051096
Heightened Def Con from 0.00511081 to 0.00511081
Heightened Def Con from 0.00511082 to 0.00511083
Heightened Def Con from 0.00512959 to 0.0051296
Heightened Def Con from 0.00513081 to 0.00513082
Heightened Def Con from 0.00513082 to 0.00513083
Heightened Def Con from 0.00514959 to 0.0051496
Heightened Def Con from 0.00515081 to 0.00515082
Heightened Def Con from 0.00515082 to 0.00515083
Heightened Def Con from 0.00516959 to 0.0051696
Heightened Def Con from 0.00517081 to 0.00517082
Heightened Def Con from 0.00517082 to 0.00517083
Heightened Def Con from 0.00518959 to 0.00518959
Heightened Def Con from 0.00519082 to 0.00519082
Heightened Def Con from 0.00519083 to 0.00519083
Heightened Def Con from 0.00520959 to 0.00520959
Heightened Def Con from 0.00521082 to 0.00521082
Heightened Def Con from 0.00521083 to 0.00521083
Heightened Def Con from 0.00522958 to 0.00522959
Heightened Def Con from 0.00523082 to 0.00523082
Heightened Def Con from 0.00523083 to 0.00523083
Heightened Def Con from 0.00524958 to 0.00524959
Heightened Def Con from 0.00525082 to 0.00525083
Heightened Def Con from 0.00525083 to 0.00525084
Heightened Def Con from 0.00526958 to 0.00526958
Heightened Def Con from 0.00527082 to 0.00527083
Heightened Def Con from 0.00527083 to 0.00527084
Heightened Def Con from 0.00528958 to 0.00528958
Heightened Def Con from 0.00529083 to 0.00529083
Heightened Def Con from 0.00529084 to 0.00529084
Heightened Def Con from 0.00530958 to 0.00530958
Heightened Def Con from 0.00531083 to 0.00531083
Heightened Def Con from 0.00531084 to 0.00531084
Heightened Def Con from 0.00532957 to 0.00532958
Heightened Def Con from 0.00533083 to 0.00533084
Heightened Def Con from 0.00533084 to 0.00533085
Heightened Def Con from 0.00534957 to 0.00534957
Heightened Def Con from 0.00535083 to 0.00535084
Heightened Def Con from 0.00535084 to 0.00535085
Heightened Def Con from 0.00536957 to 0.00536957
Heightened Def Con from 0.00537084 to 0.00537084
Heightened Def Con from 0.00537085 to 0.00537085
Heightened Def Con from 0.00538956 to 0.00538957
Heightened Def Con from 0.00539084 to 0.00539085
Heightened Def Con from 0.00539085 to 0.00539086
Heightened Def Con from 0.00540955 to 0.00540955
Heightened Def Con from 0.00540956 to 0.00540957
Heightened Def Con from 0.00541084 to 0.00541085
Heightened Def Con from 0.00541085 to 0.00541086
Heightened Def Con from 0.00542956 to 0.00542956
Heightened Def Con from 0.00543085 to 0.00543085
Heightened Def Con from 0.00543086 to 0.00543086
Heightened Def Con from 0.00544955 to 0.00544956
Heightened Def Con from 0.00545085 to 0.00545086
Heightened Def Con from 0.00545086 to 0.00545087
Heightened Def Con from 0.00546955 to 0.00546955
Heightened Def Con from 0.00547086 to 0.00547086
Heightened Def Con from 0.00547087 to 0.00547087
Heightened Def Con from 0.00548955 to 0.00548955
Heightened Def Con from 0.00549086 to 0.00549086
Heightened Def Con from 0.00549087 to 0.00549087
Heightened Def Con from 0.00550954 to 0.00550955
Heightened Def Con from 0.00551086 to 0.00551087
Heightened Def Con from 0.00551087 to 0.00551088
Heightened Def Con from 0.00552954 to 0.00552954
Heightened Def Con from 0.00553087 to 0.00553087
Heightened Def Con from 0.00553088 to 0.00553088
Heightened Def Con from 0.00554953 to 0.00554954
Heightened Def Con from 0.00555087 to 0.00555088
Heightened Def Con from 0.00555088 to 0.00555089
Heightened Def Con from 0.00556953 to 0.00556953
Heightened Def Con from 0.00557088 to 0.00557088
Heightened Def Con from 0.00557089 to 0.00557089
Heightened Def Con from 0.00558952 to 0.00558953
Heightened Def Con from 0.00559088 to 0.00559089
Heightened Def Con from 0.00559089 to 0.0055909
Heightened Def Con from 0.00560952 to 0.00560952
Heightened Def Con from 0.00561089 to 0.00561089
Heightened Def Con from 0.0056109 to 0.0056109
Heightened Def Con from 0.00562951 to 0.00562952
Heightened Def Con from 0.00563089 to 0.0056309
Heightened Def Con from 0.0056309 to 0.00563091
Heightened Def Con from 0.0056495 to 0.0056495
Heightened Def Con from 0.00564951 to 0.00564951
Heightened Def Con from 0.0056509 to 0.0056509
Heightened Def Con from 0.00565091 to 0.00565091
Heightened Def Con from 0.00566949 to 0.00566949
Heightened Def Con from 0.0056695 to 0.00566951
Heightened Def Con from 0.0056709 to 0.00567091
Heightened Def Con from 0.00567091 to 0.00567092
Heightened Def Con from 0.0056895 to 0.0056895
Heightened Def Con from 0.00569091 to 0.00569091
Heightened Def Con from 0.00569092 to 0.00569092
Heightened Def Con from 0.00570949 to 0.00570949
Heightened Def Con from 0.00571091 to 0.00571092
Heightened Def Con from 0.00571092 to 0.00571093
Heightened Def Con from 0.00572948 to 0.00572949
Heightened Def Con from 0.00573092 to 0.00573092
Heightened Def Con from 0.00573093 to 0.00573093
Heightened Def Con from 0.00574948 to 0.00574948
Heightened Def Con from 0.00575093 to 0.00575093
Heightened Def Con from 0.00575094 to 0.00575094
Heightened Def Con from 0.00576947 to 0.00576948
Heightened Def Con from 0.00577093 to 0.00577094
Heightened Def Con from 0.00577094 to 0.00577095
Heightened Def Con from 0.00578947 to 0.00578947
Heightened Def Con from 0.00579094 to 0.00579094
Heightened Def Con from 0.00579095 to 0.00579095
Heightened Def Con from 0.00580946 to 0.00580946
Heightened Def Con from 0.00581095 to 0.00581095
Heightened Def Con from 0.00581096 to 0.00581096
Heightened Def Con from 0.00582945 to 0.00582946
Heightened Def Con from 0.00583095 to 0.00583096
Heightened Def Con from 0.00583096 to 0.00583097
Heightened Def Con from 0.00584944 to 0.00584945
Heightened Def Con from 0.00585096 to 0.00585096
Heightened Def Con from 0.00585097 to 0.00585097
Heightened Def Con from 0.00586944 to 0.00586944
Heightened Def Con from 0.00587097 to 0.00587097
Heightened Def Con from 0.00587098 to 0.00587098
Heightened Def Con from 0.00588943 to 0.00588943
Heightened Def Con from 0.00589097 to 0.00589098
Heightened Def Con from 0.00589099 to 0.00589099
Heightened Def Con from 0.00590942 to 0.00590943
Heightened Def Con from 0.00591098 to 0.00591099
Heightened Def Con from 0.00591099 to 0.005911
Heightened Def Con from 0.00592941 to 0.00592942
Heightened Def Con from 0.00593099 to 0.00593099
Heightened Def Con from 0.005931 to 0.005931
Heightened Def Con from 0.00594941 to 0.00594941
Heightened Def Con from 0.005951 to 0.005951
Heightened Def Con from 0.00595101 to 0.00595101
Heightened Def Con from 0.0059694 to 0.0059694
Heightened Def Con from 0.00597101 to 0.00597101
Heightened Def Con from 0.00597102 to 0.00597102
Heightened Def Con from 0.00598939 to 0.0059894
Heightened Def Con from 0.00599101 to 0.00599102
Heightened Def Con from 0.00599102 to 0.00599103
Heightened Def Con from 0.00600938 to 0.00600939
Heightened Def Con from 0.00601102 to 0.00601103
Heightened Def Con from 0.00601103 to 0.00601104
Heightened Def Con from 0.00602937 to 0.00602938
Heightened Def Con from 0.00603103 to 0.00603104
Heightened Def Con from 0.00603104 to 0.00603105
Heightened Def Con from 0.00604937 to 0.00604937
Heightened Def Con from 0.00605104 to 0.00605104
Heightened Def Con from 0.00605105 to 0.00605105
Heightened Def Con from 0.00606936 to 0.00606936
Heightened Def Con from 0.00607105 to 0.00607105
Heightened Def Con from 0.00607106 to 0.00607106
Heightened Def Con from 0.00608935 to 0.00608935
Heightened Def Con from 0.00609106 to 0.00609106
Heightened Def Con from 0.00609107 to 0.00609107
Heightened Def Con from 0.00610934 to 0.00610934
Heightened Def Con from 0.00611107 to 0.00611107
Heightened Def Con from 0.00611108 to 0.00611108
Heightened Def Con from 0.00612933 to 0.00612933
Heightened Def Con from 0.00613108 to 0.00613108
Heightened Def Con from 0.00613109 to 0.00613109
Heightened Def Con from 0.00614932 to 0.00614932
Heightened Def Con from 0.00615109 to 0.00615109
Heightened Def Con from 0.0061511 to 0.0061511
Heightened Def Con from 0.00616931 to 0.00616931
Heightened Def Con from 0.0061711 to 0.0061711
Heightened Def Con from 0.00617111 to 0.00617111
Heightened Def Con from 0.0061893 to 0.0061893
Heightened Def Con from 0.00619111 to 0.00619111
Heightened Def Con from 0.00619112 to 0.00619112
Heightened Def Con from 0.00620929 to 0.0062093
Heightened Def Con from 0.00621111 to 0.00621112
Heightened Def Con from 0.00621112 to 0.00621113
Heightened Def Con from 0.00622927 to 0.00622927
Heightened Def Con from 0.00622928 to 0.00622929
Heightened Def Con from 0.00623112 to 0.00623113
Heightened Def Con from 0.00623113 to 0.00623114
Heightened Def Con from 0.00624927 to 0.00624927
Heightened Def Con from 0.00625114 to 0.00625114
Heightened Def Con from 0.00625115 to 0.00625115
Heightened Def Con from 0.00626926 to 0.00626926
Heightened Def Con from 0.00627114 to 0.00627115
Heightened Def Con from 0.00627115 to 0.00627116
Heightened Def Con from 0.00628925 to 0.00628925
Heightened Def Con from 0.00629116 to 0.00629116
Heightened Def Con from 0.00629117 to 0.00629117
Heightened Def Con from 0.00630924 to 0.00630924
Heightened Def Con from 0.00631117 to 0.00631117
Heightened Def Con from 0.00631118 to 0.00631118
Heightened Def Con from 0.00632923 to 0.00632923
Heightened Def Con from 0.00633118 to 0.00633118
Heightened Def Con from 0.00633119 to 0.00633119
Heightened Def Con from 0.00634922 to 0.00634922
Heightened Def Con from 0.00635119 to 0.00635119
Heightened Def Con from 0.0063512 to 0.0063512
Heightened Def Con from 0.00636921 to 0.00636921
Heightened Def Con from 0.0063712 to 0.0063712
Heightened Def Con from 0.00637121 to 0.00637121
Heightened Def Con from 0.00638919 to 0.0063892
Heightened Def Con from 0.00639121 to 0.00639122
Heightened Def Con from 0.00639122 to 0.00639123
Heightened Def Con from 0.00640917 to 0.00640918
Heightened Def Con from 0.00640918 to 0.00640919
Heightened Def Con from 0.00641122 to 0.00641123
Heightened Def Con from 0.00641123 to 0.00641124
Heightened Def Con from 0.00642917 to 0.00642918
Heightened Def Con from 0.00643123 to 0.00643124
Heightened Def Con from 0.00643124 to 0.00643125
Heightened Def Con from 0.00644916 to 0.00644916
Heightened Def Con from 0.00645125 to 0.00645125
Heightened Def Con from 0.00645126 to 0.00645126
Heightened Def Con from 0.00646914 to 0.00646914
Heightened Def Con from 0.00646915 to 0.00646915
Heightened Def Con from 0.00647126 to 0.00647126
Heightened Def Con from 0.00647127 to 0.00647127
Heightened Def Con from 0.00648914 to 0.00648914
Heightened Def Con from 0.00649127 to 0.00649127
Heightened Def Con from 0.00649128 to 0.00649128
Heightened Def Con from 0.00650912 to 0.00650913
Heightened Def Con from 0.00651128 to 0.00651129
Heightened Def Con from 0.00651129 to 0.0065113
Heightened Def Con from 0.00652911 to 0.00652911
Heightened Def Con from 0.00653129 to 0.0065313
Heightened Def Con from 0.0065313 to 0.00653131
Heightened Def Con from 0.0065491 to 0.0065491
Heightened Def Con from 0.00655131 to 0.00655131
Heightened Def Con from 0.00655132 to 0.00655132
Heightened Def Con from 0.00656909 to 0.00656909
Heightened Def Con from 0.00657132 to 0.00657133
Heightened Def Con from 0.00657133 to 0.00657134
Heightened Def Con from 0.00658906 to 0.00658907
Heightened Def Con from 0.00658907 to 0.00658908
Heightened Def Con from 0.00659133 to 0.00659134
Heightened Def Con from 0.00659134 to 0.00659135
Heightened Def Con from 0.00660906 to 0.00660906
Heightened Def Con from 0.00661135 to 0.00661135
Heightened Def Con from 0.00661136 to 0.00661136
Heightened Def Con from 0.00662905 to 0.00662905
Heightened Def Con from 0.00663136 to 0.00663136
Heightened Def Con from 0.00663137 to 0.00663137
Heightened Def Con from 0.00664903 to 0.00664904
Heightened Def Con from 0.00665137 to 0.00665138
Heightened Def Con from 0.00665138 to 0.00665139
Heightened Def Con from 0.00666902 to 0.00666902
Heightened Def Con from 0.00667138 to 0.00667139
Heightened Def Con from 0.00667139 to 0.0066714
Heightened Def Con from 0.006689 to 0.006689
Heightened Def Con from 0.00668901 to 0.00668901
Heightened Def Con from 0.0066914 to 0.0066914
Heightened Def Con from 0.00669141 to 0.00669141
Heightened Def Con from 0.00670899 to 0.006709
Heightened Def Con from 0.00671141 to 0.00671142
Heightened Def Con from 0.00671142 to 0.00671143
Heightened Def Con from 0.00672898 to 0.00672898
Heightened Def Con from 0.00673143 to 0.00673143
Heightened Def Con from 0.00673144 to 0.00673144
Heightened Def Con from 0.00674897 to 0.00674897
Heightened Def Con from 0.00675144 to 0.00675144
Heightened Def Con from 0.00675145 to 0.00675145
Heightened Def Con from 0.00676895 to 0.00676896
Heightened Def Con from 0.00677146 to 0.00677146
Heightened Def Con from 0.00677147 to 0.00677147
Heightened Def Con from 0.00678894 to 0.00678894
Heightened Def Con from 0.00679147 to 0.00679147
Heightened Def Con from 0.00679148 to 0.00679148
Heightened Def Con from 0.00680892 to 0.00680893
Heightened Def Con from 0.00681148 to 0.00681149
Heightened Def Con from 0.00681149 to 0.0068115
Heightened Def Con from 0.00682891 to 0.00682891
Heightened Def Con from 0.0068315 to 0.0068315
Heightened Def Con from 0.00683151 to 0.00683151
Heightened Def Con from 0.00684889 to 0.0068489
Heightened Def Con from 0.00685151 to 0.00685152
Heightened Def Con from 0.00685152 to 0.00685153
Heightened Def Con from 0.00686888 to 0.00686888
Heightened Def Con from 0.00687153 to 0.00687153
Heightened Def Con from 0.00687154 to 0.00687154
Heightened Def Con from 0.00688886 to 0.00688887
Heightened Def Con from 0.00689154 to 0.00689155
Heightened Def Con from 0.00689155 to 0.00689156
Heightened Def Con from 0.00690884 to 0.00690884
Heightened Def Con from 0.00690885 to 0.00690885
Heightened Def Con from 0.00691156 to 0.00691156
Heightened Def Con from 0.00691157 to 0.00691157
Heightened Def Con from 0.00692883 to 0.00692884
Heightened Def Con from 0.00693157 to 0.00693158
Heightened Def Con from 0.00693158 to 0.00693159
Heightened Def Con from 0.00694882 to 0.00694882
Heightened Def Con from 0.00695159 to 0.00695159
Heightened Def Con from 0.0069516 to 0.0069516
Heightened Def Con from 0.0069688 to 0.00696881
Heightened Def Con from 0.0069716 to 0.00697161
Heightened Def Con from 0.00697161 to 0.00697162
Heightened Def Con from 0.00698879 to 0.00698879
Heightened Def Con from 0.00699162 to 0.00699162
Heightened Def Con from 0.00699163 to 0.00699163
Heightened Def Con from 0.00700877 to 0.00700878
Heightened Def Con from 0.00701164 to 0.00701164
Heightened Def Con from 0.00701165 to 0.00701165
Heightened Def Con from 0.00702875 to 0.00702876
Heightened Def Con from 0.00703165 to 0.00703166
Heightened Def Con from 0.00703166 to 0.00703167
Heightened Def Con from 0.00704874 to 0.00704874
Heightened Def Con from 0.00705167 to 0.00705167
Heightened Def Con from 0.00705168 to 0.00705168
Heightened Def Con from 0.00706872 to 0.00706873
Heightened Def Con from 0.00707168 to 0.00707169
Heightened Def Con from 0.00707169 to 0.0070717
Heightened Def Con from 0.00708871 to 0.00708871
Heightened Def Con from 0.0070917 to 0.0070917
Heightened Def Con from 0.00709171 to 0.00709171
Heightened Def Con from 0.00710868 to 0.00710868
Heightened Def Con from 0.00710869 to 0.00710869
Heightened Def Con from 0.00711172 to 0.00711172
Heightened Def Con from 0.00711173 to 0.00711173
Heightened Def Con from 0.00712867 to 0.00712868
Heightened Def Con from 0.00713173 to 0.00713174
Heightened Def Con from 0.00713174 to 0.00713175
Heightened Def Con from 0.00714866 to 0.00714866
Heightened Def Con from 0.00715175 to 0.00715175
Heightened Def Con from 0.00715176 to 0.00715176
Heightened Def Con from 0.00716863 to 0.00716863
Heightened Def Con from 0.00716864 to 0.00716864
Heightened Def Con from 0.00717177 to 0.00717177
Heightened Def Con from 0.00717178 to 0.00717178
Heightened Def Con from 0.00718862 to 0.00718863
Heightened Def Con from 0.00719179 to 0.00719179
Heightened Def Con from 0.0071918 to 0.0071918
Heightened Def Con from 0.0072086 to 0.00720861
Heightened Def Con from 0.0072118 to 0.00721181
Heightened Def Con from 0.00721181 to 0.00721182
Heightened Def Con from 0.00722858 to 0.00722858
Heightened Def Con from 0.00722859 to 0.00722859
Heightened Def Con from 0.00723182 to 0.00723182
Heightened Def Con from 0.00723183 to 0.00723183
Heightened Def Con from 0.00724856 to 0.00724856
Heightened Def Con from 0.00724857 to 0.00724858
Heightened Def Con from 0.00725184 to 0.00725184
Heightened Def Con from 0.00725185 to 0.00725185
Heightened Def Con from 0.00726855 to 0.00726856
Heightened Def Con from 0.00727185 to 0.00727186
Heightened Def Con from 0.00727186 to 0.00727187
Heightened Def Con from 0.00728853 to 0.00728854
Heightened Def Con from 0.00729187 to 0.00729188
Heightened Def Con from 0.00729188 to 0.00729189
Heightened Def Con from 0.00730852 to 0.00730852
Heightened Def Con from 0.00731189 to 0.00731189
Heightened Def Con from 0.0073119 to 0.0073119
Heightened Def Con from 0.0073285 to 0.0073285
Heightened Def Con from 0.00733191 to 0.00733191
Heightened Def Con from 0.00733192 to 0.00733192
Heightened Def Con from 0.00734848 to 0.00734849
Heightened Def Con from 0.00735193 to 0.00735193
Heightened Def Con from 0.00735194 to 0.00735194
Heightened Def Con from 0.00736846 to 0.00736847
Heightened Def Con from 0.00737194 to 0.00737195
Heightened Def Con from 0.00737195 to 0.00737196
Heightened Def Con from 0.00738844 to 0.00738845
Heightened Def Con from 0.00739196 to 0.00739197
Heightened Def Con from 0.00739197 to 0.00739198
Heightened Def Con from 0.00740843 to 0.00740843
Heightened Def Con from 0.00741198 to 0.00741199
Heightened Def Con from 0.00741199 to 0.007412
Heightened Def Con from 0.00742841 to 0.00742841
Heightened Def Con from 0.007432 to 0.007432
Heightened Def Con from 0.00743201 to 0.00743201
Heightened Def Con from 0.00744839 to 0.00744839
Heightened Def Con from 0.00745202 to 0.00745202
Heightened Def Con from 0.00745203 to 0.00745203
Heightened Def Con from 0.00746837 to 0.00746838
Heightened Def Con from 0.00747204 to 0.00747204
Heightened Def Con from 0.00747205 to 0.00747205
Heightened Def Con from 0.00748834 to 0.00748834
Heightened Def Con from 0.00748835 to 0.00748836
Heightened Def Con from 0.00749206 to 0.00749206
Heightened Def Con from 0.00749207 to 0.00749207
Heightened Def Con from 0.00750833 to 0.00750834
Heightened Def Con from 0.00751208 to 0.00751208
Heightened Def Con from 0.00751208 to 0.00751209
Heightened Def Con from 0.00752831 to 0.00752832
Heightened Def Con from 0.0075321 to 0.0075321
Heightened Def Con from 0.00753211 to 0.00753211
Heightened Def Con from 0.00754829 to 0.0075483
Heightened Def Con from 0.00755211 to 0.00755212
Heightened Def Con from 0.00755212 to 0.00755213
Heightened Def Con from 0.00756827 to 0.00756828
Heightened Def Con from 0.00757213 to 0.00757214
Heightened Def Con from 0.00757214 to 0.00757215
Heightened Def Con from 0.00758825 to 0.00758826
Heightened Def Con from 0.00759215 to 0.00759216
Heightened Def Con from 0.00759216 to 0.00759217
Heightened Def Con from 0.00760824 to 0.00760824
Heightened Def Con from 0.00761217 to 0.00761218
Heightened Def Con from 0.00761218 to 0.00761219
Heightened Def Con from 0.00762822 to 0.00762822
Heightened Def Con from 0.00763219 to 0.0076322
Heightened Def Con from 0.0076322 to 0.00763221
Heightened Def Con from 0.0076482 to 0.0076482
Heightened Def Con from 0.00765221 to 0.00765222
Heightened Def Con from 0.00765222 to 0.00765223
Heightened Def Con from 0.00766818 to 0.00766818
Heightened Def Con from 0.00767223 to 0.00767224
Heightened Def Con from 0.00767224 to 0.00767225
Heightened Def Con from 0.00768816 to 0.00768816
Heightened Def Con from 0.00769225 to 0.00769226
Heightened Def Con from 0.00769226 to 0.00769227
Heightened Def Con from 0.00770813 to 0.00770813
Heightened Def Con from 0.00770814 to 0.00770814
Heightened Def Con from 0.00771227 to 0.00771228
Heightened Def Con from 0.00771228 to 0.00771229
Heightened Def Con from 0.00772812 to 0.00772812
Heightened Def Con from 0.00773229 to 0.0077323
Heightened Def Con from 0.0077323 to 0.00773231
Heightened Def Con from 0.00774809 to 0.0077481
Heightened Def Con from 0.00775231 to 0.00775232
Heightened Def Con from 0.00775232 to 0.00775233
Heightened Def Con from 0.00776807 to 0.00776808
Heightened Def Con from 0.00777233 to 0.00777234
Heightened Def Con from 0.00777234 to 0.00777235
Heightened Def Con from 0.00778805 to 0.00778806
Heightened Def Con from 0.00779235 to 0.00779236
Heightened Def Con from 0.00779236 to 0.00779237
Heightened Def Con from 0.00780803 to 0.00780804
Heightened Def Con from 0.00781237 to 0.00781238
Heightened Def Con from 0.00781238 to 0.00781239
Heightened Def Con from 0.00782801 to 0.00782802
Heightened Def Con from 0.0078324 to 0.0078324
Heightened Def Con from 0.00783241 to 0.00783241
Heightened Def Con from 0.00784799 to 0.007848
Heightened Def Con from 0.00785242 to 0.00785242
Heightened Def Con from 0.00785243 to 0.00785243
Heightened Def Con from 0.00786797 to 0.00786798
Heightened Def Con from 0.00787244 to 0.00787244
Heightened Def Con from 0.00787245 to 0.00787245
Heightened Def Con from 0.00788795 to 0.00788795
Heightened Def Con from 0.00789246 to 0.00789246
Heightened Def Con from 0.00789247 to 0.00789247
Heightened Def Con from 0.00790793 to 0.00790793
Heightened Def Con from 0.00791248 to 0.00791248
Heightened Def Con from 0.00791249 to 0.00791249
Heightened Def Con from 0.00792791 to 0.00792791
Heightened Def Con from 0.0079325 to 0.00793251
Heightened Def Con from 0.00793251 to 0.00793252
Heightened Def Con from 0.00794789 to 0.00794789
Heightened Def Con from 0.00795252 to 0.00795253
Heightened Def Con from 0.00795253 to 0.00795254
Heightened Def Con from 0.00796786 to 0.00796787
Heightened Def Con from 0.00797255 to 0.00797255
Heightened Def Con from 0.00797255 to 0.00797256
Heightened Def Con from 0.00798784 to 0.00798785
Heightened Def Con from 0.00799257 to 0.00799257
Heightened Def Con from 0.00799258 to 0.00799258
Heightened Def Con from 0.00800782 to 0.00800783
Heightened Def Con from 0.00801259 to 0.00801259
Heightened Def Con from 0.0080126 to 0.0080126
Heightened Def Con from 0.0080278 to 0.0080278
Heightened Def Con from 0.00803261 to 0.00803262
Heightened Def Con from 0.00803262 to 0.00803263
Heightened Def Con from 0.00804778 to 0.00804778
Heightened Def Con from 0.00805263 to 0.00805264
Heightened Def Con from 0.00805264 to 0.00805265
Heightened Def Con from 0.00806776 to 0.00806776
Heightened Def Con from 0.00807266 to 0.00807266
Heightened Def Con from 0.00807266 to 0.00807267
Heightened Def Con from 0.00808773 to 0.00808774
Heightened Def Con from 0.00809268 to 0.00809268
Heightened Def Con from 0.00809269 to 0.00809269
Heightened Def Con from 0.00810771 to 0.00810771
Heightened Def Con from 0.0081127 to 0.0081127
Heightened Def Con from 0.00811271 to 0.00811271
Heightened Def Con from 0.00812769 to 0.00812769
Heightened Def Con from 0.00813272 to 0.00813273
Heightened Def Con from 0.00813273 to 0.00813274
Heightened Def Con from 0.00814767 to 0.00814767
Heightened Def Con from 0.00815274 to 0.00815275
Heightened Def Con from 0.00815275 to 0.00815276
Heightened Def Con from 0.00816764 to 0.00816765
Heightened Def Con from 0.00817277 to 0.00817277
Heightened Def Con from 0.00817278 to 0.00817278
Heightened Def Con from 0.00818762 to 0.00818762
Heightened Def Con from 0.00819279 to 0.00819279
Heightened Def Con from 0.0081928 to 0.0081928
Heightened Def Con from 0.0082076 to 0.0082076
Heightened Def Con from 0.00821281 to 0.00821282
Heightened Def Con from 0.00821282 to 0.00821283
Heightened Def Con from 0.00822757 to 0.00822758
Heightened Def Con from 0.00823284 to 0.00823284
Heightened Def Con from 0.00823284 to 0.00823285
Heightened Def Con from 0.00824755 to 0.00824756
Heightened Def Con from 0.00825286 to 0.00825286
Heightened Def Con from 0.00825287 to 0.00825287
Heightened Def Con from 0.00826753 to 0.00826753
Heightened Def Con from 0.00827288 to 0.00827289
Heightened Def Con from 0.00827289 to 0.00827289
Heightened Def Con from 0.00828751 to 0.00828751
Heightened Def Con from 0.0082929 to 0.00829291
Heightened Def Con from 0.00829291 to 0.00829292
Heightened Def Con from 0.00830748 to 0.00830749
Heightened Def Con from 0.00831293 to 0.00831293
Heightened Def Con from 0.00831294 to 0.00831294
Heightened Def Con from 0.00832746 to 0.00832746
Heightened Def Con from 0.00833295 to 0.00833296
Heightened Def Con from 0.00833296 to 0.00833296
Heightened Def Con from 0.00834744 to 0.00834744
Heightened Def Con from 0.00835297 to 0.00835298
Heightened Def Con from 0.00835298 to 0.00835299
Heightened Def Con from 0.00836741 to 0.00836742
Heightened Def Con from 0.008373 to 0.008373
Heightened Def Con from 0.00837301 to 0.00837301
Heightened Def Con from 0.00838739 to 0.00838739
Heightened Def Con from 0.00839302 to 0.00839303
Heightened Def Con from 0.00839303 to 0.00839303
Heightened Def Con from 0.00840737 to 0.00840737
Heightened Def Con from 0.00841305 to 0.00841305
Heightened Def Con from 0.00841305 to 0.00841306
Heightened Def Con from 0.00842734 to 0.00842735
Heightened Def Con from 0.00843307 to 0.00843307
Heightened Def Con from 0.00843308 to 0.00843308
Heightened Def Con from 0.00844732 to 0.00844732
Heightened Def Con from 0.00845309 to 0.0084531
Heightened Def Con from 0.0084531 to 0.00845311
Heightened Def Con from 0.00846729 to 0.00846729
Heightened Def Con from 0.00846729 to 0.0084673
Heightened Def Con from 0.00847312 to 0.00847312
Heightened Def Con from 0.00847313 to 0.00847313
Heightened Def Con from 0.00848727 to 0.00848728
Heightened Def Con from 0.00849314 to 0.00849314
Heightened Def Con from 0.00849315 to 0.00849315
Heightened Def Con from 0.00850725 to 0.00850725
Heightened Def Con from 0.00851316 to 0.00851317
Heightened Def Con from 0.00851317 to 0.00851318
Heightened Def Con from 0.00852722 to 0.00852723
Heightened Def Con from 0.00853319 to 0.00853319
Heightened Def Con from 0.0085332 to 0.0085332
Heightened Def Con from 0.0085472 to 0.0085472
Heightened Def Con from 0.00855321 to 0.00855322
Heightened Def Con from 0.00855322 to 0.00855323
Heightened Def Con from 0.00856717 to 0.00856718
Heightened Def Con from 0.00857324 to 0.00857324
Heightened Def Con from 0.00857325 to 0.00857325
Heightened Def Con from 0.00858715 to 0.00858715
Heightened Def Con from 0.00859326 to 0.00859327
Heightened Def Con from 0.00859327 to 0.00859328
Heightened Def Con from 0.00860713 to 0.00860713
Heightened Def Con from 0.00861329 to 0.00861329
Heightened Def Con from 0.00861329 to 0.0086133
Heightened Def Con from 0.0086271 to 0.00862711
Heightened Def Con from 0.00863331 to 0.00863331
Heightened Def Con from 0.00863332 to 0.00863332
Heightened Def Con from 0.00864708 to 0.00864708
Heightened Def Con from 0.00865334 to 0.00865334
Heightened Def Con from 0.00865334 to 0.00865335
Heightened Def Con from 0.00866705 to 0.00866706
Heightened Def Con from 0.00867336 to 0.00867336
Heightened Def Con from 0.00867337 to 0.00867337
Heightened Def Con from 0.00868703 to 0.00868703
Heightened Def Con from 0.00869338 to 0.00869339
Heightened Def Con from 0.00869339 to 0.0086934
Heightened Def Con from 0.008707 to 0.00870701
Heightened Def Con from 0.00871341 to 0.00871341
Heightened Def Con from 0.00871342 to 0.00871342
Heightened Def Con from 0.00872698 to 0.00872698
Heightened Def Con from 0.00873343 to 0.00873344
Heightened Def Con from 0.00873344 to 0.00873345
Heightened Def Con from 0.00874695 to 0.00874696
Heightened Def Con from 0.00875346 to 0.00875346
Heightened Def Con from 0.00875347 to 0.00875347
Heightened Def Con from 0.00876693 to 0.00876693
Heightened Def Con from 0.00877348 to 0.00877349
Heightened Def Con from 0.00877349 to 0.0087735
Heightened Def Con from 0.0087869 to 0.00878691
Heightened Def Con from 0.00879351 to 0.00879351
Heightened Def Con from 0.00879352 to 0.00879352
Heightened Def Con from 0.00880688 to 0.00880688
Heightened Def Con from 0.00881353 to 0.00881354
Heightened Def Con from 0.00881354 to 0.00881355
Heightened Def Con from 0.00882685 to 0.00882686
Heightened Def Con from 0.00883356 to 0.00883356
Heightened Def Con from 0.00883357 to 0.00883357
Heightened Def Con from 0.00884683 to 0.00884683
Heightened Def Con from 0.00885358 to 0.00885359
Heightened Def Con from 0.00885359 to 0.0088536
Heightened Def Con from 0.00886679 to 0.0088668
Heightened Def Con from 0.0088668 to 0.00886681
Heightened Def Con from 0.00887361 to 0.00887361
Heightened Def Con from 0.00887362 to 0.00887362
Heightened Def Con from 0.00888678 to 0.00888678
Heightened Def Con from 0.00889364 to 0.00889364
Heightened Def Con from 0.00889364 to 0.00889365
Heightened Def Con from 0.00890674 to 0.00890675
Heightened Def Con from 0.00890675 to 0.00890676
Heightened Def Con from 0.00891366 to 0.00891366
Heightened Def Con from 0.00891367 to 0.00891367
Heightened Def Con from 0.00892673 to 0.00892673
Heightened Def Con from 0.00893369 to 0.00893369
Heightened Def Con from 0.00893369 to 0.0089337
Heightened Def Con from 0.0089467 to 0.00894671
Heightened Def Con from 0.00895371 to 0.00895372
Heightened Def Con from 0.00895372 to 0.00895372
Heightened Def Con from 0.00896668 to 0.00896668
Heightened Def Con from 0.00897374 to 0.00897374
Heightened Def Con from 0.00897374 to 0.00897375
Heightened Def Con from 0.00898665 to 0.00898666
Heightened Def Con from 0.00899376 to 0.00899377
Heightened Def Con from 0.00899377 to 0.00899377
Heightened Def Con from 0.00900663 to 0.00900663
Heightened Def Con from 0.00901379 to 0.0090138
Heightened Def Con from 0.0090266 to 0.0090266
Heightened Def Con from 0.00904657 to 0.00904658
Heightened Def Con from 0.00906655 to 0.00906655
Heightened Def Con from 0.00908652 to 0.00908653
Heightened Def Con from 0.0091065 to 0.0091065
Heightened Def Con from 0.00912647 to 0.00912648
Heightened Def Con from 0.00914644 to 0.00914645
Heightened Def Con from 0.00916642 to 0.00916642
Heightened Def Con from 0.00918639 to 0.0091864
Heightened Def Con from 0.00920637 to 0.00920637
Heightened Def Con from 0.00922634 to 0.00922635
Heightened Def Con from 0.00924631 to 0.00924632
Heightened Def Con from 0.00925431 to 0.00925434
Heightened Def Con from 0.00926629 to 0.00926629
Heightened Def Con from 0.00927434 to 0.00927435
Heightened Def Con from 0.00928626 to 0.00928627
Heightened Def Con from 0.00929436 to 0.00929437
Heightened Def Con from 0.00930624 to 0.00930624
Heightened Def Con from 0.00931439 to 0.0093144
Heightened Def Con from 0.00932621 to 0.00932621
Heightened Def Con from 0.00933442 to 0.00933442
Heightened Def Con from 0.00934618 to 0.00934619
Heightened Def Con from 0.00935444 to 0.00935445
Heightened Def Con from 0.00936616 to 0.00936616
Heightened Def Con from 0.00937447 to 0.00937448
Heightened Def Con from 0.00938612 to 0.00938612
Heightened Def Con from 0.00938613 to 0.00938614
Heightened Def Con from 0.0093945 to 0.0093945
Heightened Def Con from 0.0094061 to 0.00940611
Heightened Def Con from 0.00941452 to 0.00941453
Heightened Def Con from 0.00942608 to 0.00942608
Heightened Def Con from 0.00943455 to 0.00943456
Heightened Def Con from 0.00944605 to 0.00944606
Heightened Def Con from 0.00945458 to 0.00945458
Heightened Def Con from 0.00946602 to 0.00946603
Heightened Def Con from 0.0094746 to 0.00947461
Heightened Def Con from 0.009486 to 0.009486
Heightened Def Con from 0.00949463 to 0.00949463
Heightened Def Con from 0.00950597 to 0.00950598
Heightened Def Con from 0.00951466 to 0.00951466
Heightened Def Con from 0.00952595 to 0.00952595
Heightened Def Con from 0.00953468 to 0.00953469
Heightened Def Con from 0.00954592 to 0.00954592
Heightened Def Con from 0.00955471 to 0.00955471
Heightened Def Con from 0.00956589 to 0.0095659
Heightened Def Con from 0.00957474 to 0.00957474
Heightened Def Con from 0.00958586 to 0.00958587
Heightened Def Con from 0.00959476 to 0.00959477
Heightened Def Con from 0.00960584 to 0.00960584
Heightened Def Con from 0.00961479 to 0.0096148
Heightened Def Con from 0.00962581 to 0.00962582
Heightened Def Con from 0.00963482 to 0.00963482
Heightened Def Con from 0.00964578 to 0.00964579
Heightened Def Con from 0.00965484 to 0.00965485
Heightened Def Con from 0.00966576 to 0.00966576
Heightened Def Con from 0.00967487 to 0.00967488
Heightened Def Con from 0.00968573 to 0.00968574
Heightened Def Con from 0.0096949 to 0.0096949
Heightened Def Con from 0.0097057 to 0.00970571
Heightened Def Con from 0.00971492 to 0.00971493
Heightened Def Con from 0.00972567 to 0.00972567
Heightened Def Con from 0.00972568 to 0.00972568
Heightened Def Con from 0.00973495 to 0.00973496
Heightened Def Con from 0.00974565 to 0.00974566
Heightened Def Con from 0.00975498 to 0.00975498
Heightened Def Con from 0.00976562 to 0.00976563
Heightened Def Con from 0.00977501 to 0.00977501
Heightened Def Con from 0.0097856 to 0.0097856
Heightened Def Con from 0.00979503 to 0.00979504
Heightened Def Con from 0.00980557 to 0.00980558
Heightened Def Con from 0.00981506 to 0.00981506
Heightened Def Con from 0.00982554 to 0.00982555
Heightened Def Con from 0.00983509 to 0.00983509
Heightened Def Con from 0.00984552 to 0.00984552
Heightened Def Con from 0.00985511 to 0.00985512
Heightened Def Con from 0.00986549 to 0.00986549
Heightened Def Con from 0.00987514 to 0.00987514
Heightened Def Con from 0.00988546 to 0.00988547
Heightened Def Con from 0.00989517 to 0.00989517
Heightened Def Con from 0.00990544 to 0.00990544
Heightened Def Con from 0.00991519 to 0.0099152
Heightened Def Con from 0.00992541 to 0.00992541
Heightened Def Con from 0.00993522 to 0.00993523
Heightened Def Con from 0.00994538 to 0.00994539
Heightened Def Con from 0.00995525 to 0.00995525
Heightened Def Con from 0.00996536 to 0.00996536
Heightened Def Con from 0.00997527 to 0.00997528
Heightened Def Con from 0.00998533 to 0.00998533
Heightened Def Con from 0.0099953 to 0.00999531
Heightened Def Con from 0.0100053 to 0.0100053
Heightened Def Con from 0.0100153 to 0.0100153
Heightened Def Con from 0.0100253 to 0.0100253
Heightened Def Con from 0.0100354 to 0.0100354
Heightened Def Con from 0.0100452 to 0.0100453
Heightened Def Con from 0.0100554 to 0.0100554
Heightened Def Con from 0.0100652 to 0.0100652
Heightened Def Con from 0.0100754 to 0.0100754
Heightened Def Con from 0.0100852 to 0.0100852
Heightened Def Con from 0.0100954 to 0.0100954
Heightened Def Con from 0.0101052 to 0.0101052
Heightened Def Con from 0.0101155 to 0.0101155
Heightened Def Con from 0.0101251 to 0.0101251
Heightened Def Con from 0.0101355 to 0.0101355
Heightened Def Con from 0.0101355 to 0.0101355
Heightened Def Con from 0.0101451 to 0.0101451
Heightened Def Con from 0.0101555 to 0.0101555
Heightened Def Con from 0.0101651 to 0.0101651
Heightened Def Con from 0.0101755 to 0.0101755
Heightened Def Con from 0.0101851 to 0.0101851
Heightened Def Con from 0.0101956 to 0.0101956
Heightened Def Con from 0.0101956 to 0.0101956
Heightened Def Con from 0.010205 to 0.010205
Heightened Def Con from 0.0102156 to 0.0102156
Heightened Def Con from 0.010225 to 0.010225
Heightened Def Con from 0.0102356 to 0.0102356
Heightened Def Con from 0.010245 to 0.010245
Heightened Def Con from 0.0102557 to 0.0102557
Heightened Def Con from 0.010265 to 0.010265
Heightened Def Con from 0.0102757 to 0.0102757
Heightened Def Con from 0.0102849 to 0.0102849
Heightened Def Con from 0.0102957 to 0.0102957
Heightened Def Con from 0.0103049 to 0.0103049
Heightened Def Con from 0.0103157 to 0.0103157
Heightened Def Con from 0.0103249 to 0.0103249
Heightened Def Con from 0.0103358 to 0.0103358
Heightened Def Con from 0.0103448 to 0.0103449
Heightened Def Con from 0.0103558 to 0.0103558
Heightened Def Con from 0.0103648 to 0.0103648
Heightened Def Con from 0.0103648 to 0.0103648
Heightened Def Con from 0.0103758 to 0.0103758
Heightened Def Con from 0.0103758 to 0.0103758
Heightened Def Con from 0.0103848 to 0.0103848
Heightened Def Con from 0.0103958 to 0.0103958
Heightened Def Con from 0.0104048 to 0.0104048
Heightened Def Con from 0.0104159 to 0.0104159
Heightened Def Con from 0.0104247 to 0.0104247
Heightened Def Con from 0.0104359 to 0.0104359
Heightened Def Con from 0.0104447 to 0.0104447
Heightened Def Con from 0.0104559 to 0.0104559
Heightened Def Con from 0.0104647 to 0.0104647
Heightened Def Con from 0.0104759 to 0.010476
Heightened Def Con from 0.0104847 to 0.0104847
Heightened Def Con from 0.010496 to 0.010496
Heightened Def Con from 0.0105046 to 0.0105046
Heightened Def Con from 0.010516 to 0.010516
Heightened Def Con from 0.0105246 to 0.0105246
Heightened Def Con from 0.010536 to 0.010536
Heightened Def Con from 0.0105446 to 0.0105446
Heightened Def Con from 0.0105561 to 0.0105561
Heightened Def Con from 0.0105646 to 0.0105646
Heightened Def Con from 0.0105761 to 0.0105761
Heightened Def Con from 0.0105845 to 0.0105845
Heightened Def Con from 0.0105961 to 0.0105961
Heightened Def Con from 0.0106045 to 0.0106045
Heightened Def Con from 0.0106161 to 0.0106161
Heightened Def Con from 0.0106245 to 0.0106245
Heightened Def Con from 0.0106362 to 0.0106362
Heightened Def Con from 0.0106444 to 0.0106445
Heightened Def Con from 0.0106562 to 0.0106562
Heightened Def Con from 0.0106644 to 0.0106644
Heightened Def Con from 0.0106762 to 0.0106762
Heightened Def Con from 0.0106844 to 0.0106844
Heightened Def Con from 0.0106962 to 0.0106962
Heightened Def Con from 0.0107044 to 0.0107044
Heightened Def Con from 0.0107163 to 0.0107163
Heightened Def Con from 0.0107243 to 0.0107243
Heightened Def Con from 0.0107363 to 0.0107363
Heightened Def Con from 0.0107443 to 0.0107443
Heightened Def Con from 0.0107563 to 0.0107563
Heightened Def Con from 0.0107763 to 0.0107763
Heightened Def Con from 0.0107964 to 0.0107964
Heightened Def Con from 0.0108164 to 0.0108164
Heightened Def Con from 0.0108364 to 0.0108364
Heightened Def Con from 0.0108564 to 0.0108565
Heightened Def Con from 0.0108765 to 0.0108765
Heightened Def Con from 0.0108965 to 0.0108965
Heightened Def Con from 0.0109165 to 0.0109165
Heightened Def Con from 0.0109366 to 0.0109366
Heightened Def Con from 0.0109566 to 0.0109566
Heightened Def Con from 0.0109766 to 0.0109766
Heightened Def Con from 0.0109838 to 0.0109838
Heightened Def Con from 0.0109838 to 0.0109838
Heightened Def Con from 0.0109966 to 0.0109966
Heightened Def Con from 0.0110038 to 0.0110038
Heightened Def Con from 0.0110038 to 0.0110038
Heightened Def Con from 0.0110167 to 0.0110167
Heightened Def Con from 0.0110237 to 0.0110237
Heightened Def Con from 0.0110237 to 0.0110238
Heightened Def Con from 0.0110367 to 0.0110367
Heightened Def Con from 0.0110437 to 0.0110437
Heightened Def Con from 0.0110437 to 0.0110437
Heightened Def Con from 0.0110567 to 0.0110567
Heightened Def Con from 0.0110637 to 0.0110637
Heightened Def Con from 0.0110637 to 0.0110637
Heightened Def Con from 0.0110767 to 0.0110767
Heightened Def Con from 0.0110837 to 0.0110837
Heightened Def Con from 0.0110837 to 0.0110837
Heightened Def Con from 0.0110968 to 0.0110968
Heightened Def Con from 0.0111036 to 0.0111036
Heightened Def Con from 0.0111036 to 0.0111037
Heightened Def Con from 0.0111168 to 0.0111168
Heightened Def Con from 0.0111236 to 0.0111236
Heightened Def Con from 0.0111236 to 0.0111236
Heightened Def Con from 0.0111368 to 0.0111368
Heightened Def Con from 0.0111436 to 0.0111436
Heightened Def Con from 0.0111436 to 0.0111436
Heightened Def Con from 0.0111568 to 0.0111568
Heightened Def Con from 0.0111636 to 0.0111636
Heightened Def Con from 0.0111636 to 0.0111636
Heightened Def Con from 0.0111769 to 0.0111769
Heightened Def Con from 0.0111835 to 0.0111835
Heightened Def Con from 0.0111835 to 0.0111836
Heightened Def Con from 0.0111969 to 0.0111969
Heightened Def Con from 0.0112035 to 0.0112035
Heightened Def Con from 0.0112035 to 0.0112035
Heightened Def Con from 0.0112169 to 0.0112169
Heightened Def Con from 0.0112235 to 0.0112235
Heightened Def Con from 0.0112235 to 0.0112235
Heightened Def Con from 0.0112369 to 0.0112369
Heightened Def Con from 0.0112435 to 0.0112435
Heightened Def Con from 0.0112435 to 0.0112435
Heightened Def Con from 0.011257 to 0.011257
Heightened Def Con from 0.0112634 to 0.0112634
Heightened Def Con from 0.0112634 to 0.0112635
Heightened Def Con from 0.011277 to 0.011277
Heightened Def Con from 0.0112834 to 0.0112834
Heightened Def Con from 0.0112834 to 0.0112834
Heightened Def Con from 0.011297 to 0.011297
Heightened Def Con from 0.0113034 to 0.0113034
Heightened Def Con from 0.0113034 to 0.0113034
Heightened Def Con from 0.011317 to 0.011317
Heightened Def Con from 0.0113234 to 0.0113234
Heightened Def Con from 0.0113234 to 0.0113234
Heightened Def Con from 0.0113371 to 0.0113371
Heightened Def Con from 0.0113433 to 0.0113433
Heightened Def Con from 0.0113433 to 0.0113434
Heightened Def Con from 0.0113571 to 0.0113571
Heightened Def Con from 0.0113633 to 0.0113633
Heightened Def Con from 0.0113633 to 0.0113633
Heightened Def Con from 0.0113771 to 0.0113771
Heightened Def Con from 0.0113833 to 0.0113833
Heightened Def Con from 0.0113833 to 0.0113833
Heightened Def Con from 0.0113971 to 0.0113971
Heightened Def Con from 0.0114033 to 0.0114033
Heightened Def Con from 0.0114033 to 0.0114033
Heightened Def Con from 0.0114171 to 0.0114171
Heightened Def Con from 0.0114172 to 0.0114172
Heightened Def Con from 0.0114232 to 0.0114232
Heightened Def Con from 0.0114233 to 0.0114233
Heightened Def Con from 0.0114372 to 0.0114372
Heightened Def Con from 0.0114432 to 0.0114432
Heightened Def Con from 0.0114432 to 0.0114432
Heightened Def Con from 0.0114572 to 0.0114572
Heightened Def Con from 0.0114632 to 0.0114632
Heightened Def Con from 0.0114632 to 0.0114632
Heightened Def Con from 0.0114772 to 0.0114772
Heightened Def Con from 0.0114832 to 0.0114832
Heightened Def Con from 0.0114832 to 0.0114832
Heightened Def Con from 0.0114973 to 0.0114973
Heightened Def Con from 0.0115031 to 0.0115031
Heightened Def Con from 0.0115032 to 0.0115032
Heightened Def Con from 0.0115173 to 0.0115173
Heightened Def Con from 0.0115231 to 0.0115231
Heightened Def Con from 0.0115231 to 0.0115231
Heightened Def Con from 0.0115373 to 0.0115373
Heightened Def Con from 0.0115373 to 0.0115373
Heightened Def Con from 0.0115431 to 0.0115431
Heightened Def Con from 0.0115431 to 0.0115431
Heightened Def Con from 0.0115573 to 0.0115573
Heightened Def Con from 0.0115631 to 0.0115631
Heightened Def Con from 0.0115631 to 0.0115631
Heightened Def Con from 0.0115773 to 0.0115774
Heightened Def Con from 0.0115831 to 0.0115831
Heightened Def Con from 0.0115831 to 0.0115831
Heightened Def Con from 0.0115974 to 0.0115974
Heightened Def Con from 0.011603 to 0.011603
Heightened Def Con from 0.011603 to 0.011603
Heightened Def Con from 0.0116174 to 0.0116174
Heightened Def Con from 0.011623 to 0.011623
Heightened Def Con from 0.011623 to 0.011623
Heightened Def Con from 0.0116374 to 0.0116374
Heightened Def Con from 0.011643 to 0.011643
Heightened Def Con from 0.011643 to 0.011643
Heightened Def Con from 0.0116574 to 0.0116574
Heightened Def Con from 0.0116574 to 0.0116574
Heightened Def Con from 0.011663 to 0.011663
Heightened Def Con from 0.011663 to 0.011663
Heightened Def Con from 0.0116775 to 0.0116775
Heightened Def Con from 0.0116829 to 0.0116829
Heightened Def Con from 0.0116829 to 0.0116829
Heightened Def Con from 0.0116975 to 0.0116975
Heightened Def Con from 0.0117029 to 0.0117029
Heightened Def Con from 0.0117029 to 0.0117029
Heightened Def Con from 0.0117175 to 0.0117175
Heightened Def Con from 0.0117229 to 0.0117229
Heightened Def Con from 0.0117229 to 0.0117229
Heightened Def Con from 0.0117375 to 0.0117375
Heightened Def Con from 0.0117429 to 0.0117429
[...]
Heightened Def Con from 0.0174983 to 0.0174983
Heightened Def Con from 0.0175021 to 0.0175021
Heightened Def Con from 0.0175021 to 0.0175021
Heightened Def Con from 0.0175183 to 0.0175183
Heightened Def Con from 0.0175221 to 0.0175221
Heightened Def Con from 0.0175221 to 0.0175221
Heightened Def Con from 0.0175383 to 0.0175383
Heightened Def Con from 0.0175421 to 0.0175421
Heightened Def Con from 0.0175421 to 0.0175421
Heightened Def Con from 0.0175423 to 0.0175423
Heightened Def Con from 0.0175583 to 0.0175583
Heightened Def Con from 0.0175621 to 0.0175621
Heightened Def Con from 0.0175621 to 0.0175621
Heightened Def Con from 0.0175783 to 0.0175783
Heightened Def Con from 0.0175783 to 0.0175783
Heightened Def Con from 0.0175821 to 0.0175821
Heightened Def Con from 0.0175822 to 0.0175822
Heightened Def Con from 0.0175982 to 0.0175983
Heightened Def Con from 0.0176022 to 0.0176022
Heightened Def Con from 0.0176022 to 0.0176022
Heightened Def Con from 0.0176182 to 0.0176182
Heightened Def Con from 0.0176222 to 0.0176222
Heightened Def Con from 0.0176222 to 0.0176222
Heightened Def Con from 0.0176382 to 0.0176382
Heightened Def Con from 0.0176422 to 0.0176422
Heightened Def Con from 0.0176422 to 0.0176422
Heightened Def Con from 0.0176582 to 0.0176582
Heightened Def Con from 0.0176622 to 0.0176622
Heightened Def Con from 0.0176622 to 0.0176622
Heightened Def Con from 0.0176782 to 0.0176782
Heightened Def Con from 0.0176822 to 0.0176822
Heightened Def Con from 0.0176823 to 0.0176823
Heightened Def Con from 0.0176981 to 0.0176982
Heightened Def Con from 0.0177023 to 0.0177023
Heightened Def Con from 0.0177023 to 0.0177023
Heightened Def Con from 0.0177181 to 0.0177181
Heightened Def Con from 0.0177223 to 0.0177223
Heightened Def Con from 0.0177223 to 0.0177223
Heightened Def Con from 0.0177381 to 0.0177381
Heightened Def Con from 0.0177423 to 0.0177423
Heightened Def Con from 0.0177423 to 0.0177423
Heightened Def Con from 0.0177581 to 0.0177581
Heightened Def Con from 0.0177623 to 0.0177623
Heightened Def Con from 0.0177623 to 0.0177623
Heightened Def Con from 0.0177781 to 0.0177781
Heightened Def Con from 0.0177823 to 0.0177823
Heightened Def Con from 0.0177824 to 0.0177824
Heightened Def Con from 0.017798 to 0.017798
Heightened Def Con from 0.0178024 to 0.0178024
Heightened Def Con from 0.0178024 to 0.0178024
Heightened Def Con from 0.017818 to 0.017818
Heightened Def Con from 0.0178224 to 0.0178224
Heightened Def Con from 0.0178224 to 0.0178224
Heightened Def Con from 0.017838 to 0.017838
Heightened Def Con from 0.0178424 to 0.0178424
Heightened Def Con from 0.0178424 to 0.0178424
Heightened Def Con from 0.017858 to 0.017858
Heightened Def Con from 0.0178624 to 0.0178624
Heightened Def Con from 0.0178624 to 0.0178624
Heightened Def Con from 0.017878 to 0.017878
Heightened Def Con from 0.017878 to 0.017878
Heightened Def Con from 0.0178824 to 0.0178825
Heightened Def Con from 0.0178825 to 0.0178825
Heightened Def Con from 0.0178979 to 0.0178979
Heightened Def Con from 0.0179025 to 0.0179025
Heightened Def Con from 0.0179025 to 0.0179025
Heightened Def Con from 0.0179179 to 0.0179179
Heightened Def Con from 0.0179225 to 0.0179225
Heightened Def Con from 0.0179225 to 0.0179225
Heightened Def Con from 0.0179379 to 0.0179379
Heightened Def Con from 0.0179425 to 0.0179425
Heightened Def Con from 0.0179425 to 0.0179425
Heightened Def Con from 0.0179579 to 0.0179579
Heightened Def Con from 0.0179625 to 0.0179625
Heightened Def Con from 0.0179625 to 0.0179625
Heightened Def Con from 0.0179779 to 0.0179779
Heightened Def Con from 0.0179826 to 0.0179826
Heightened Def Con from 0.0179826 to 0.0179826
Heightened Def Con from 0.0179978 to 0.0179978
Heightened Def Con from 0.0179978 to 0.0179978
Heightened Def Con from 0.0180026 to 0.0180026
Heightened Def Con from 0.0180026 to 0.0180026
Heightened Def Con from 0.0180178 to 0.0180178
Heightened Def Con from 0.0180226 to 0.0180226
Heightened Def Con from 0.0180226 to 0.0180226
Heightened Def Con from 0.0180378 to 0.0180378
Heightened Def Con from 0.0180426 to 0.0180426
Heightened Def Con from 0.0180426 to 0.0180426
Heightened Def Con from 0.0180578 to 0.0180578
Heightened Def Con from 0.0180626 to 0.0180626
Heightened Def Con from 0.0180627 to 0.0180627
Heightened Def Con from 0.0180777 to 0.0180777
Heightened Def Con from 0.0180827 to 0.0180827
Heightened Def Con from 0.0180827 to 0.0180827
Heightened Def Con from 0.0180977 to 0.0180977
Heightened Def Con from 0.0180977 to 0.0180977
Heightened Def Con from 0.0181027 to 0.0181027
Heightened Def Con from 0.0181027 to 0.0181027
Heightened Def Con from 0.0181177 to 0.0181177
Heightened Def Con from 0.0181227 to 0.0181227
Heightened Def Con from 0.0181227 to 0.0181227
Heightened Def Con from 0.0181377 to 0.0181377
Heightened Def Con from 0.0181427 to 0.0181427
Heightened Def Con from 0.0181427 to 0.0181427
Heightened Def Con from 0.0181577 to 0.0181577
Heightened Def Con from 0.0181628 to 0.0181628
Heightened Def Con from 0.0181628 to 0.0181628
Heightened Def Con from 0.0181776 to 0.0181776
Heightened Def Con from 0.0181828 to 0.0181828
Heightened Def Con from 0.0181828 to 0.0181828
Heightened Def Con from 0.0181976 to 0.0181976
Heightened Def Con from 0.0182028 to 0.0182028
Heightened Def Con from 0.0182028 to 0.0182028
Heightened Def Con from 0.0182176 to 0.0182176
Heightened Def Con from 0.0182176 to 0.0182176
Heightened Def Con from 0.0182228 to 0.0182228
Heightened Def Con from 0.0182228 to 0.0182228
Heightened Def Con from 0.0182376 to 0.0182376
Heightened Def Con from 0.0182428 to 0.0182429
Heightened Def Con from 0.0182429 to 0.0182429
Heightened Def Con from 0.0182575 to 0.0182575
Heightened Def Con from 0.0182629 to 0.0182629
Heightened Def Con from 0.0182629 to 0.0182629
Heightened Def Con from 0.0182775 to 0.0182775
Heightened Def Con from 0.0182829 to 0.0182829
Heightened Def Con from 0.0182829 to 0.0182829
Heightened Def Con from 0.0182975 to 0.0182975
Heightened Def Con from 0.0183029 to 0.0183029
Heightened Def Con from 0.0183029 to 0.0183029
Heightened Def Con from 0.0183175 to 0.0183175
Heightened Def Con from 0.0183229 to 0.0183229
Heightened Def Con from 0.0183229 to 0.018323
Heightened Def Con from 0.0183374 to 0.0183375
Heightened Def Con from 0.018343 to 0.018343
Heightened Def Con from 0.018343 to 0.018343
Heightened Def Con from 0.0183574 to 0.0183574
Heightened Def Con from 0.018363 to 0.018363
Heightened Def Con from 0.018363 to 0.018363
Heightened Def Con from 0.0183774 to 0.0183774
Heightened Def Con from 0.018383 to 0.018383
Heightened Def Con from 0.018383 to 0.018383
Heightened Def Con from 0.0183974 to 0.0183974
Heightened Def Con from 0.018403 to 0.018403
Heightened Def Con from 0.018403 to 0.018403
Heightened Def Con from 0.0184174 to 0.0184174
Heightened Def Con from 0.0184231 to 0.0184231
Heightened Def Con from 0.0184231 to 0.0184231
Heightened Def Con from 0.0184373 to 0.0184373
Heightened Def Con from 0.0184431 to 0.0184431
Heightened Def Con from 0.0184431 to 0.0184431
Heightened Def Con from 0.0184573 to 0.0184573
Heightened Def Con from 0.0184573 to 0.0184573
Heightened Def Con from 0.0184631 to 0.0184631
Heightened Def Con from 0.0184631 to 0.0184631
Heightened Def Con from 0.0184773 to 0.0184773
Heightened Def Con from 0.0184831 to 0.0184831
Heightened Def Con from 0.0184831 to 0.0184831
Heightened Def Con from 0.0184973 to 0.0184973
Heightened Def Con from 0.0185032 to 0.0185032
Heightened Def Con from 0.0185032 to 0.0185032
Heightened Def Con from 0.0185172 to 0.0185172
Heightened Def Con from 0.0185232 to 0.0185232
Heightened Def Con from 0.0185232 to 0.0185232
Heightened Def Con from 0.0185372 to 0.0185372
Heightened Def Con from 0.0185432 to 0.0185432
Heightened Def Con from 0.0185432 to 0.0185432
Heightened Def Con from 0.0185572 to 0.0185572
Heightened Def Con from 0.0185572 to 0.0185572
Heightened Def Con from 0.0185632 to 0.0185632
Heightened Def Con from 0.0185632 to 0.0185632
Heightened Def Con from 0.0185772 to 0.0185772
Heightened Def Con from 0.0185832 to 0.0185833
Heightened Def Con from 0.0185833 to 0.0185833
Heightened Def Con from 0.0185971 to 0.0185971
Heightened Def Con from 0.0186033 to 0.0186033
Heightened Def Con from 0.0186033 to 0.0186033
Heightened Def Con from 0.0186171 to 0.0186171
Heightened Def Con from 0.0186233 to 0.0186233
Heightened Def Con from 0.0186233 to 0.0186233
Heightened Def Con from 0.0186371 to 0.0186371
Heightened Def Con from 0.0186433 to 0.0186433
Heightened Def Con from 0.0186433 to 0.0186433
Heightened Def Con from 0.0186571 to 0.0186571
Heightened Def Con from 0.0186571 to 0.0186571
Heightened Def Con from 0.0186633 to 0.0186634
Heightened Def Con from 0.0186634 to 0.0186634
Heightened Def Con from 0.018677 to 0.018677
Heightened Def Con from 0.0186834 to 0.0186834
Heightened Def Con from 0.0186834 to 0.0186834
Heightened Def Con from 0.018697 to 0.018697
Heightened Def Con from 0.0187034 to 0.0187034
Heightened Def Con from 0.0187034 to 0.0187034
Heightened Def Con from 0.018717 to 0.018717
Heightened Def Con from 0.0187234 to 0.0187234
Heightened Def Con from 0.0187234 to 0.0187234
Heightened Def Con from 0.018737 to 0.018737
Heightened Def Con from 0.0187434 to 0.0187435
Heightened Def Con from 0.0187435 to 0.0187435
Heightened Def Con from 0.0187569 to 0.0187569
Heightened Def Con from 0.0187635 to 0.0187635
Heightened Def Con from 0.0187635 to 0.0187635
Heightened Def Con from 0.0187769 to 0.0187769
Heightened Def Con from 0.0187769 to 0.0187769
Heightened Def Con from 0.0187835 to 0.0187835
Heightened Def Con from 0.0187835 to 0.0187835
Heightened Def Con from 0.0187969 to 0.0187969
Heightened Def Con from 0.0188035 to 0.0188035
Heightened Def Con from 0.0188035 to 0.0188035
Heightened Def Con from 0.0188169 to 0.0188169
Heightened Def Con from 0.0188235 to 0.0188236
Heightened Def Con from 0.0188236 to 0.0188236
Heightened Def Con from 0.0188368 to 0.0188368
Heightened Def Con from 0.0188436 to 0.0188436
Heightened Def Con from 0.0188436 to 0.0188436
Heightened Def Con from 0.0188568 to 0.0188568
Heightened Def Con from 0.0188636 to 0.0188636
Heightened Def Con from 0.0188636 to 0.0188636
Heightened Def Con from 0.0188768 to 0.0188768
Heightened Def Con from 0.0188836 to 0.0188836
Heightened Def Con from 0.0188836 to 0.0188836
Heightened Def Con from 0.0188968 to 0.0188968
Heightened Def Con from 0.0189036 to 0.0189037
Heightened Def Con from 0.0189037 to 0.0189037
Heightened Def Con from 0.0189167 to 0.0189167
Heightened Def Con from 0.0189237 to 0.0189237
Heightened Def Con from 0.0189237 to 0.0189237
Heightened Def Con from 0.0189367 to 0.0189367
Heightened Def Con from 0.0189437 to 0.0189437
Heightened Def Con from 0.0189437 to 0.0189437
Heightened Def Con from 0.0189567 to 0.0189567
Heightened Def Con from 0.0189637 to 0.0189637
Heightened Def Con from 0.0189637 to 0.0189637
Heightened Def Con from 0.0189767 to 0.0189767
Heightened Def Con from 0.0189837 to 0.0189838
Heightened Def Con from 0.0189838 to 0.0189838
Heightened Def Con from 0.0189966 to 0.0189966
Heightened Def Con from 0.0190038 to 0.0190038
Heightened Def Con from 0.0190038 to 0.0190038
Heightened Def Con from 0.0190166 to 0.0190166
Heightened Def Con from 0.0190366 to 0.0190366
Heightened Def Con from 0.0190566 to 0.0190566
Heightened Def Con from 0.0190765 to 0.0190765
Heightened Def Con from 0.0190965 to 0.0190965
Heightened Def Con from 0.0191165 to 0.0191165
Heightened Def Con from 0.0191365 to 0.0191365
Heightened Def Con from 0.0191564 to 0.0191564
Heightened Def Con from 0.0191764 to 0.0191764
Heightened Def Con from 0.0191964 to 0.0191964
Heightened Def Con from 0.0192164 to 0.0192164
Heightened Def Con from 0.0192363 to 0.0192363
Heightened Def Con from 0.0192443 to 0.0192443
Heightened Def Con from 0.0192563 to 0.0192563
Heightened Def Con from 0.0192643 to 0.0192643
Heightened Def Con from 0.0192763 to 0.0192763
Heightened Def Con from 0.0192844 to 0.0192844
Heightened Def Con from 0.0192962 to 0.0192963
Heightened Def Con from 0.0193044 to 0.0193044
Heightened Def Con from 0.0193162 to 0.0193162
Heightened Def Con from 0.0193244 to 0.0193244
Heightened Def Con from 0.0193362 to 0.0193362
Heightened Def Con from 0.0193444 to 0.0193444
Heightened Def Con from 0.0193562 to 0.0193562
Heightened Def Con from 0.0193645 to 0.0193645
Heightened Def Con from 0.0193761 to 0.0193761
Heightened Def Con from 0.0193845 to 0.0193845
Heightened Def Con from 0.0193961 to 0.0193961
Heightened Def Con from 0.0194045 to 0.0194045
Heightened Def Con from 0.0194161 to 0.0194161
Heightened Def Con from 0.0194245 to 0.0194245
Heightened Def Con from 0.0194361 to 0.0194361
Heightened Def Con from 0.0194446 to 0.0194446
Heightened Def Con from 0.019456 to 0.019456
Heightened Def Con from 0.0194646 to 0.0194646
Heightened Def Con from 0.019476 to 0.019476
Heightened Def Con from 0.0194846 to 0.0194846
Heightened Def Con from 0.019496 to 0.019496
Heightened Def Con from 0.0195046 to 0.0195046
Heightened Def Con from 0.019516 to 0.019516
Heightened Def Con from 0.0195247 to 0.0195247
Heightened Def Con from 0.0195359 to 0.0195359
Heightened Def Con from 0.0195447 to 0.0195447
Heightened Def Con from 0.0195559 to 0.0195559
Heightened Def Con from 0.0195647 to 0.0195647
Heightened Def Con from 0.0195759 to 0.0195759
Heightened Def Con from 0.0195847 to 0.0195848
Heightened Def Con from 0.0195959 to 0.0195959
Heightened Def Con from 0.0196048 to 0.0196048
Heightened Def Con from 0.0196158 to 0.0196158
Heightened Def Con from 0.0196248 to 0.0196248
Heightened Def Con from 0.0196358 to 0.0196358
Heightened Def Con from 0.0196448 to 0.0196448
Heightened Def Con from 0.0196558 to 0.0196558
Heightened Def Con from 0.0196649 to 0.0196649
Heightened Def Con from 0.0196757 to 0.0196757
Heightened Def Con from 0.0196849 to 0.0196849
Heightened Def Con from 0.0196957 to 0.0196957
Heightened Def Con from 0.0197049 to 0.0197049
Heightened Def Con from 0.0197157 to 0.0197157
Heightened Def Con from 0.0197249 to 0.0197249
Heightened Def Con from 0.0197357 to 0.0197357
Heightened Def Con from 0.019745 to 0.019745
Heightened Def Con from 0.0197556 to 0.0197556
Heightened Def Con from 0.019765 to 0.019765
Heightened Def Con from 0.0197756 to 0.0197756
Heightened Def Con from 0.019785 to 0.019785
Heightened Def Con from 0.0197956 to 0.0197956
Heightened Def Con from 0.019805 to 0.0198051
Heightened Def Con from 0.0198156 to 0.0198156
Heightened Def Con from 0.0198251 to 0.0198251
Heightened Def Con from 0.0198355 to 0.0198355
Heightened Def Con from 0.0198451 to 0.0198451
Heightened Def Con from 0.0198555 to 0.0198555
Heightened Def Con from 0.0198651 to 0.0198651
Heightened Def Con from 0.0198755 to 0.0198755
Heightened Def Con from 0.0198852 to 0.0198852
Heightened Def Con from 0.0198954 to 0.0198955
Heightened Def Con from 0.0199052 to 0.0199052
Heightened Def Con from 0.0199154 to 0.0199154
Heightened Def Con from 0.0199252 to 0.0199252
Heightened Def Con from 0.0199354 to 0.0199354
Heightened Def Con from 0.0199452 to 0.0199452
Heightened Def Con from 0.0199554 to 0.0199554
Heightened Def Con from 0.0199653 to 0.0199653
Heightened Def Con from 0.0199753 to 0.0199753
Heightened Def Con from 0.0199853 to 0.0199853
Heightened Def Con from 0.0199953 to 0.0199953
Heightened Def Con from 0.0200053 to 0.0200053
Heightened Def Con from 0.0200153 to 0.0200153
Heightened Def Con from 0.0200253 to 0.0200253
Heightened Def Con from 0.0200353 to 0.0200353
Heightened Def Con from 0.0200454 to 0.0200454
Heightened Def Con from 0.0200552 to 0.0200552
Heightened Def Con from 0.0200654 to 0.0200654
Heightened Def Con from 0.0200752 to 0.0200752
Heightened Def Con from 0.0200854 to 0.0200854
Heightened Def Con from 0.0200952 to 0.0200952
Heightened Def Con from 0.0201054 to 0.0201055
Heightened Def Con from 0.0201152 to 0.0201152
Heightened Def Con from 0.0201255 to 0.0201255
Heightened Def Con from 0.0201351 to 0.0201351
Heightened Def Con from 0.0201455 to 0.0201455
Heightened Def Con from 0.0201551 to 0.0201551
Heightened Def Con from 0.0201655 to 0.0201655
Heightened Def Con from 0.0201751 to 0.0201751
Heightened Def Con from 0.0201856 to 0.0201856
Heightened Def Con from 0.020195 to 0.0201951
Heightened Def Con from 0.0202056 to 0.0202056
Heightened Def Con from 0.020215 to 0.020215
Heightened Def Con from 0.0202256 to 0.0202256
Heightened Def Con from 0.020235 to 0.020235
Heightened Def Con from 0.0202456 to 0.0202456
Heightened Def Con from 0.020255 to 0.020255
Heightened Def Con from 0.0202657 to 0.0202657
Heightened Def Con from 0.0202749 to 0.0202749
Heightened Def Con from 0.0202857 to 0.0202857
Heightened Def Con from 0.0202949 to 0.0202949
Heightened Def Con from 0.0203057 to 0.0203057
Heightened Def Con from 0.0203149 to 0.0203149
Heightened Def Con from 0.0203257 to 0.0203258
Heightened Def Con from 0.0203349 to 0.0203349
Heightened Def Con from 0.0203458 to 0.0203458
Heightened Def Con from 0.0203548 to 0.0203548
Heightened Def Con from 0.0203658 to 0.0203658
Heightened Def Con from 0.0203748 to 0.0203748
Heightened Def Con from 0.0203858 to 0.0203858
Heightened Def Con from 0.0203948 to 0.0203948
Heightened Def Con from 0.0204059 to 0.0204059
Heightened Def Con from 0.0204148 to 0.0204148
Heightened Def Con from 0.0204259 to 0.0204259
Heightened Def Con from 0.0204347 to 0.0204347
Heightened Def Con from 0.0204459 to 0.0204459
Heightened Def Con from 0.0204547 to 0.0204547
Heightened Def Con from 0.0204659 to 0.0204659
Heightened Def Con from 0.0204747 to 0.0204747
Heightened Def Con from 0.020486 to 0.020486
Heightened Def Con from 0.0204946 to 0.0204946
Heightened Def Con from 0.020506 to 0.020506
Heightened Def Con from 0.0205146 to 0.0205146
Heightened Def Con from 0.020526 to 0.020526
Heightened Def Con from 0.0205346 to 0.0205346
Heightened Def Con from 0.020546 to 0.020546
Heightened Def Con from 0.0205546 to 0.0205546
Heightened Def Con from 0.0205661 to 0.0205661
Heightened Def Con from 0.0205745 to 0.0205745
Heightened Def Con from 0.0205861 to 0.0205861
Heightened Def Con from 0.0205945 to 0.0205945
Heightened Def Con from 0.0206061 to 0.0206061
Heightened Def Con from 0.0206145 to 0.0206145
Heightened Def Con from 0.0206261 to 0.0206262
Heightened Def Con from 0.0206345 to 0.0206345
Heightened Def Con from 0.0206462 to 0.0206462
Heightened Def Con from 0.0206544 to 0.0206544
Heightened Def Con from 0.0206662 to 0.0206662
Heightened Def Con from 0.0206744 to 0.0206744
Heightened Def Con from 0.0206862 to 0.0206862
Heightened Def Con from 0.0206944 to 0.0206944
Heightened Def Con from 0.0207063 to 0.0207063
Heightened Def Con from 0.0207144 to 0.0207144
Heightened Def Con from 0.0207263 to 0.0207263
Heightened Def Con from 0.0207343 to 0.0207344
Heightened Def Con from 0.0207463 to 0.0207463
Heightened Def Con from 0.0207663 to 0.0207663
Heightened Def Con from 0.0207864 to 0.0207864
Heightened Def Con from 0.0208064 to 0.0208064
Heightened Def Con from 0.0208264 to 0.0208264
Heightened Def Con from 0.0208264 to 0.0208264
Heightened Def Con from 0.0208464 to 0.0208464
Heightened Def Con from 0.0208665 to 0.0208665
Heightened Def Con from 0.0208865 to 0.0208865
Heightened Def Con from 0.0209065 to 0.0209065
Heightened Def Con from 0.0209265 to 0.0209265
Heightened Def Con from 0.0209466 to 0.0209466
Heightened Def Con from 0.0209666 to 0.0209666
Heightened Def Con from 0.0209738 to 0.0209738
Heightened Def Con from 0.0209866 to 0.0209866
Heightened Def Con from 0.0209938 to 0.0209938
Heightened Def Con from 0.0209938 to 0.0209938

Date: Mon Mar 07 18:53:05 2022
Total elapsed time: 1120.537 seconds.

tnom = 27
temp = 27
method = modified trap
totiter = 18253200
traniter = 18253147
tranpoints = 7074044
accept = 5277326
rejected = 1799659
matrix size = 121
fillins = 220
solver = Alternate
Thread vector: 31.9/23.9[3] 11.6/7.2[3] 5.0/2.3[3] 1.9/1.9[2]  2592/500
Matrix Compiler1: 25.88 KB object code size  6.2/5.3/[4.0]
Matrix Compiler2: 15.72 KB object code size  2.8/2.9/[1.5]

