Circuit: * C:\Users\ycay\Desktop\FullBridge_Modulations\Transformless_SP_Inverter\FullBridge_LTspice\UF3C065040K4S\ModifiedUnipolar_UF3C065040K4S_DeadTime.asc

Instance "m:u4:m1:2": Length shorter than recommended for a level 3 MOSFET.
Instance "m:u4:m1:1": Length shorter than recommended for a level 3 MOSFET.
Instance "m:u3:m1:2": Length shorter than recommended for a level 3 MOSFET.
Instance "m:u3:m1:1": Length shorter than recommended for a level 3 MOSFET.
Instance "m:u2:m1:2": Length shorter than recommended for a level 3 MOSFET.
Instance "m:u2:m1:1": Length shorter than recommended for a level 3 MOSFET.
Instance "m:u1:m1:2": Length shorter than recommended for a level 3 MOSFET.
Instance "m:u1:m1:1": Length shorter than recommended for a level 3 MOSFET.
Direct Newton iteration for .op point succeeded.
Heightened Def Con from 3.08109e-007 to 3.13109e-007
Heightened Def Con from 2.00428e-005 to 2.00468e-005
Heightened Def Con from 2.00512e-005 to 2.00524e-005
Heightened Def Con from 2.00535e-005 to 2.00585e-005
Heightened Def Con from 2.03418e-005 to 2.03458e-005
Heightened Def Con from 2.03501e-005 to 2.03531e-005
Heightened Def Con from 2.03541e-005 to 2.03571e-005
Heightened Def Con from 6.01503e-005 to 6.01553e-005
Heightened Def Con from 6.01936e-005 to 6.01976e-005
Heightened Def Con from 6.02031e-005 to 6.02071e-005
Heightened Def Con from 8.0098e-005 to 8.0103e-005
Heightened Def Con from 8.03041e-005 to 8.03081e-005
Heightened Def Con from 8.0313e-005 to 8.0317e-005
Heightened Def Con from 9.98322e-005 to 9.98362e-005
Heightened Def Con from 9.98404e-005 to 9.98444e-005
Heightened Def Con from 0.00011978 to 0.000119784
Heightened Def Con from 0.000119788 to 0.000119792
Heightened Def Con from 0.000120626 to 0.000120631
Heightened Def Con from 0.000139727 to 0.000139731
Heightened Def Con from 0.000139736 to 0.00013974
Heightened Def Con from 0.000140679 to 0.000140684
Heightened Def Con from 0.000159675 to 0.000159679
Heightened Def Con from 0.000159683 to 0.000159687
Heightened Def Con from 0.000160732 to 0.00016074
Heightened Def Con from 0.000179622 to 0.000179626
Heightened Def Con from 0.00017963 to 0.000179634
Heightened Def Con from 0.000199569 to 0.000199574
Heightened Def Con from 0.000199577 to 0.000199581
Heightened Def Con from 0.000219517 to 0.000219521
Heightened Def Con from 0.000219525 to 0.000219529
Heightened Def Con from 0.000239464 to 0.000239468
Heightened Def Con from 0.000239472 to 0.000239476
Heightened Def Con from 0.000240943 to 0.000240948
Heightened Def Con from 0.000259412 to 0.000259416
Heightened Def Con from 0.00025942 to 0.000259424
Heightened Def Con from 0.000260995 to 0.000261002
Heightened Def Con from 0.000279359 to 0.000279363
Heightened Def Con from 0.000279368 to 0.000279372
Heightened Def Con from 0.000281048 to 0.000281053
Heightened Def Con from 0.000299307 to 0.000299311
Heightened Def Con from 0.000299315 to 0.000299319
Heightened Def Con from 0.000301101 to 0.000301106
Heightened Def Con from 0.000319255 to 0.000319259
Heightened Def Con from 0.000319263 to 0.000319267
Heightened Def Con from 0.000321154 to 0.000321159
Heightened Def Con from 0.000339202 to 0.000339206
Heightened Def Con from 0.000339211 to 0.000339215
Heightened Def Con from 0.000341207 to 0.000341212
Heightened Def Con from 0.00035915 to 0.000359154
Heightened Def Con from 0.000359158 to 0.000359162
Heightened Def Con from 0.000361259 to 0.000361264
Heightened Def Con from 0.000379098 to 0.000379102
Heightened Def Con from 0.000379106 to 0.00037911
Heightened Def Con from 0.000381311 to 0.000381316
Heightened Def Con from 0.000399044 to 0.000399048
Heightened Def Con from 0.000399053 to 0.000399057
Heightened Def Con from 0.000401364 to 0.000401369
Heightened Def Con from 0.000418993 to 0.000418997
Heightened Def Con from 0.000419002 to 0.000419006
Heightened Def Con from 0.000421416 to 0.000421421
Heightened Def Con from 0.000438941 to 0.000438945
Heightened Def Con from 0.000438949 to 0.000438953
Heightened Def Con from 0.000441469 to 0.000441474
Heightened Def Con from 0.000458889 to 0.000458893
Heightened Def Con from 0.000458898 to 0.000458902
Heightened Def Con from 0.000461521 to 0.000461526
Heightened Def Con from 0.000478837 to 0.000478841
Heightened Def Con from 0.000478845 to 0.000478849
Heightened Def Con from 0.000481573 to 0.000481578
Heightened Def Con from 0.000498785 to 0.000498789
Heightened Def Con from 0.000498793 to 0.000498797
Heightened Def Con from 0.000501627 to 0.000501632
Heightened Def Con from 0.000518733 to 0.000518737
Heightened Def Con from 0.000518741 to 0.000518745
Heightened Def Con from 0.000521678 to 0.000521683
Heightened Def Con from 0.000538681 to 0.000538685
Heightened Def Con from 0.000538689 to 0.000538693
Heightened Def Con from 0.000541731 to 0.000541736
Heightened Def Con from 0.000558629 to 0.000558633
Heightened Def Con from 0.000558638 to 0.000558642
Heightened Def Con from 0.000561782 to 0.000561787
Heightened Def Con from 0.000578577 to 0.000578581
Heightened Def Con from 0.000578586 to 0.00057859
Heightened Def Con from 0.000581834 to 0.000581839
Heightened Def Con from 0.000598525 to 0.000598529
Heightened Def Con from 0.000598533 to 0.000598537
Heightened Def Con from 0.000601886 to 0.000601891
Heightened Def Con from 0.000618473 to 0.000618477
Heightened Def Con from 0.000618482 to 0.000618486
Heightened Def Con from 0.000621938 to 0.000621943
Heightened Def Con from 0.000638422 to 0.000638426
Heightened Def Con from 0.000638431 to 0.000638435
Heightened Def Con from 0.00064199 to 0.000641995
Heightened Def Con from 0.000658369 to 0.000658373
Heightened Def Con from 0.000658378 to 0.000658382
Heightened Def Con from 0.000662041 to 0.000662046
Heightened Def Con from 0.000678319 to 0.000678323
Heightened Def Con from 0.000678328 to 0.000678332
Heightened Def Con from 0.000682093 to 0.000682098
Heightened Def Con from 0.000698268 to 0.000698272
Heightened Def Con from 0.000698276 to 0.00069828
Heightened Def Con from 0.000702144 to 0.000702149
Heightened Def Con from 0.000718216 to 0.00071822
Heightened Def Con from 0.000718225 to 0.000718229
Heightened Def Con from 0.000722197 to 0.000722202
Heightened Def Con from 0.000738165 to 0.000738169
Heightened Def Con from 0.000738174 to 0.000738178
Heightened Def Con from 0.000742249 to 0.000742254
Heightened Def Con from 0.000758114 to 0.000758118
Heightened Def Con from 0.000758123 to 0.000758127
Heightened Def Con from 0.0007623 to 0.000762305
Heightened Def Con from 0.000778062 to 0.000778066
Heightened Def Con from 0.000778071 to 0.000778075
Heightened Def Con from 0.000782351 to 0.000782356
Heightened Def Con from 0.000798012 to 0.000798016
Heightened Def Con from 0.000798021 to 0.000798025
Heightened Def Con from 0.000802403 to 0.000802408
Heightened Def Con from 0.000817961 to 0.000817965
Heightened Def Con from 0.00081797 to 0.000817974
Heightened Def Con from 0.000822454 to 0.000822459
Heightened Def Con from 0.00083791 to 0.000837914
Heightened Def Con from 0.000837919 to 0.000837923
Heightened Def Con from 0.000842505 to 0.00084251
Heightened Def Con from 0.000857859 to 0.000857863
Heightened Def Con from 0.000857868 to 0.000857872
Heightened Def Con from 0.000862556 to 0.000862561
Heightened Def Con from 0.000877808 to 0.000877812
Heightened Def Con from 0.000877817 to 0.000877821
Heightened Def Con from 0.000882607 to 0.000882612
Heightened Def Con from 0.000897758 to 0.000897762
Heightened Def Con from 0.000897767 to 0.000897771
Heightened Def Con from 0.000902657 to 0.000902662
Heightened Def Con from 0.000917708 to 0.000917712
Heightened Def Con from 0.000917717 to 0.000917721
Heightened Def Con from 0.00092271 to 0.000922715
Heightened Def Con from 0.000937657 to 0.000937661
Heightened Def Con from 0.000937666 to 0.00093767
Heightened Def Con from 0.000942759 to 0.000942764
Heightened Def Con from 0.000957606 to 0.00095761
Heightened Def Con from 0.000957615 to 0.000957619
Heightened Def Con from 0.00096281 to 0.000962815
Heightened Def Con from 0.000977556 to 0.00097756
Heightened Def Con from 0.000977565 to 0.000977569
Heightened Def Con from 0.00098286 to 0.000982865
Heightened Def Con from 0.000997506 to 0.00099751
Heightened Def Con from 0.000997515 to 0.000997519
Heightened Def Con from 0.00100291 to 0.00100292
Heightened Def Con from 0.00101746 to 0.00101746
Heightened Def Con from 0.00101746 to 0.00101747
Heightened Def Con from 0.00102296 to 0.00102297
Heightened Def Con from 0.00103741 to 0.00103741
Heightened Def Con from 0.00103742 to 0.00103742
Heightened Def Con from 0.00104301 to 0.00104302
Heightened Def Con from 0.00105736 to 0.00105736
Heightened Def Con from 0.00105737 to 0.00105737
Heightened Def Con from 0.00106306 to 0.00106307
Heightened Def Con from 0.00107731 to 0.00107731
Heightened Def Con from 0.00107732 to 0.00107732
Heightened Def Con from 0.00108311 to 0.00108312
Heightened Def Con from 0.00109726 to 0.00109726
Heightened Def Con from 0.00109727 to 0.00109727
Heightened Def Con from 0.00110316 to 0.00110317
Heightened Def Con from 0.00111721 to 0.00111721
Heightened Def Con from 0.00111722 to 0.00111722
Heightened Def Con from 0.00112321 to 0.00112322
Heightened Def Con from 0.00113716 to 0.00113716
Heightened Def Con from 0.00113717 to 0.00113717
Heightened Def Con from 0.00114326 to 0.00114327
Heightened Def Con from 0.00115711 to 0.00115711
Heightened Def Con from 0.00115712 to 0.00115712
Heightened Def Con from 0.00116331 to 0.00116331
Heightened Def Con from 0.00117706 to 0.00117706
Heightened Def Con from 0.00117707 to 0.00117707
Heightened Def Con from 0.00118336 to 0.00118336
Heightened Def Con from 0.00119701 to 0.00119702
Heightened Def Con from 0.00119702 to 0.00119702
Heightened Def Con from 0.00120341 to 0.00120341
Heightened Def Con from 0.00121696 to 0.00121697
Heightened Def Con from 0.00121697 to 0.00121698
Heightened Def Con from 0.00122346 to 0.00122346
Heightened Def Con from 0.00123691 to 0.00123692
Heightened Def Con from 0.00123692 to 0.00123693
Heightened Def Con from 0.00124351 to 0.00124351
Heightened Def Con from 0.00125686 to 0.00125687
Heightened Def Con from 0.00125687 to 0.00125688
Heightened Def Con from 0.00126355 to 0.00126356
Heightened Def Con from 0.00127682 to 0.00127682
Heightened Def Con from 0.00127682 to 0.00127683
Heightened Def Con from 0.0012836 to 0.00128361
Heightened Def Con from 0.00129677 to 0.00129677
Heightened Def Con from 0.00129678 to 0.00129678
Heightened Def Con from 0.00130365 to 0.00130366
Heightened Def Con from 0.00131672 to 0.00131672
Heightened Def Con from 0.00131673 to 0.00131673
Heightened Def Con from 0.0013237 to 0.00132371
Heightened Def Con from 0.00133667 to 0.00133667
Heightened Def Con from 0.00133668 to 0.00133668
Heightened Def Con from 0.00134375 to 0.00134375
Heightened Def Con from 0.00135662 to 0.00135663
Heightened Def Con from 0.00135663 to 0.00135664
Heightened Def Con from 0.0013638 to 0.0013638
Heightened Def Con from 0.00137658 to 0.00137658
Heightened Def Con from 0.00137658 to 0.00137659
Heightened Def Con from 0.00138385 to 0.00138385
Heightened Def Con from 0.00139653 to 0.00139653
Heightened Def Con from 0.00139654 to 0.00139654
Heightened Def Con from 0.00140389 to 0.0014039
Heightened Def Con from 0.00141648 to 0.00141648
Heightened Def Con from 0.00141649 to 0.00141649
Heightened Def Con from 0.00142394 to 0.00142395
Heightened Def Con from 0.00143643 to 0.00143644
Heightened Def Con from 0.00143644 to 0.00143645
Heightened Def Con from 0.00144399 to 0.00144399
Heightened Def Con from 0.00145639 to 0.00145639
Heightened Def Con from 0.00145639 to 0.0014564
Heightened Def Con from 0.00146404 to 0.00146404
Heightened Def Con from 0.00147634 to 0.00147634
Heightened Def Con from 0.00147635 to 0.00147635
Heightened Def Con from 0.00148408 to 0.00148409
Heightened Def Con from 0.00149629 to 0.00149629
Heightened Def Con from 0.0014963 to 0.0014963
Heightened Def Con from 0.00150413 to 0.00150413
Heightened Def Con from 0.00151624 to 0.00151625
Heightened Def Con from 0.00151625 to 0.00151626
Heightened Def Con from 0.00152418 to 0.00152418
Heightened Def Con from 0.0015362 to 0.0015362
Heightened Def Con from 0.00153621 to 0.00153621
Heightened Def Con from 0.00154422 to 0.00154423
Heightened Def Con from 0.00155615 to 0.00155616
Heightened Def Con from 0.00155616 to 0.00155616
Heightened Def Con from 0.00156427 to 0.00156428
Heightened Def Con from 0.0015761 to 0.00157611
Heightened Def Con from 0.00157611 to 0.00157612
Heightened Def Con from 0.00158432 to 0.00158432
Heightened Def Con from 0.00159606 to 0.00159606
Heightened Def Con from 0.00159607 to 0.00159607
Heightened Def Con from 0.00160436 to 0.00160437
Heightened Def Con from 0.00161601 to 0.00161602
Heightened Def Con from 0.00161602 to 0.00161603
Heightened Def Con from 0.00162441 to 0.00162442
Heightened Def Con from 0.00163597 to 0.00163597
Heightened Def Con from 0.00163598 to 0.00163598
Heightened Def Con from 0.00164446 to 0.00164446
Heightened Def Con from 0.00165592 to 0.00165592
Heightened Def Con from 0.00165593 to 0.00165593
Heightened Def Con from 0.0016645 to 0.00166451
Heightened Def Con from 0.00167587 to 0.00167588
Heightened Def Con from 0.00167588 to 0.00167589
Heightened Def Con from 0.00168455 to 0.00168455
Heightened Def Con from 0.00169583 to 0.00169583
Heightened Def Con from 0.00169584 to 0.00169584
Heightened Def Con from 0.00170459 to 0.0017046
Heightened Def Con from 0.00171578 to 0.00171579
Heightened Def Con from 0.00171579 to 0.0017158
Heightened Def Con from 0.00172464 to 0.00172464
Heightened Def Con from 0.00173574 to 0.00173574
Heightened Def Con from 0.00173575 to 0.00173575
Heightened Def Con from 0.00174468 to 0.00174469
Heightened Def Con from 0.00175569 to 0.0017557
Heightened Def Con from 0.0017557 to 0.00175571
Heightened Def Con from 0.00176473 to 0.00176473
Heightened Def Con from 0.00177565 to 0.00177565
Heightened Def Con from 0.00177566 to 0.00177566
Heightened Def Con from 0.00178477 to 0.00178478
Heightened Def Con from 0.0017956 to 0.00179561
Heightened Def Con from 0.00179561 to 0.00179562
Heightened Def Con from 0.00180482 to 0.00180482
Heightened Def Con from 0.00181556 to 0.00181556
Heightened Def Con from 0.00181557 to 0.00181557
Heightened Def Con from 0.00182486 to 0.00182487
Heightened Def Con from 0.00183552 to 0.00183552
Heightened Def Con from 0.00183552 to 0.00183553
Heightened Def Con from 0.00184491 to 0.00184491
Heightened Def Con from 0.00185547 to 0.00185548
Heightened Def Con from 0.00185548 to 0.00185548
Heightened Def Con from 0.00186495 to 0.00186496
Heightened Def Con from 0.00187543 to 0.00187543
Heightened Def Con from 0.00187544 to 0.00187544
Heightened Def Con from 0.001885 to 0.001885
Heightened Def Con from 0.00189538 to 0.00189539
Heightened Def Con from 0.00189539 to 0.0018954
Heightened Def Con from 0.00190504 to 0.00190504
Heightened Def Con from 0.00191534 to 0.00191534
Heightened Def Con from 0.00191535 to 0.00191535
Heightened Def Con from 0.00192508 to 0.00192509
Heightened Def Con from 0.0019353 to 0.0019353
Heightened Def Con from 0.00193531 to 0.00193531
Heightened Def Con from 0.00194513 to 0.00194513
Heightened Def Con from 0.00195525 to 0.00195526
Heightened Def Con from 0.00195526 to 0.00195527
Heightened Def Con from 0.00196517 to 0.00196518
Heightened Def Con from 0.00197521 to 0.00197522
Heightened Def Con from 0.00197522 to 0.00197522
Heightened Def Con from 0.00198521 to 0.00198522
Heightened Def Con from 0.00199517 to 0.00199517
Heightened Def Con from 0.00199518 to 0.00199518
Heightened Def Con from 0.00200526 to 0.00200526
Heightened Def Con from 0.00201513 to 0.00201513
Heightened Def Con from 0.00201514 to 0.00201514
Heightened Def Con from 0.0020253 to 0.0020253
Heightened Def Con from 0.00203508 to 0.00203509
Heightened Def Con from 0.00203509 to 0.0020351
Heightened Def Con from 0.00204534 to 0.00204535
Heightened Def Con from 0.00205504 to 0.00205505
Heightened Def Con from 0.00205505 to 0.00205506
Heightened Def Con from 0.00206538 to 0.00206539
Heightened Def Con from 0.002075 to 0.002075
Heightened Def Con from 0.00207501 to 0.00207501
Heightened Def Con from 0.00208543 to 0.00208543
Heightened Def Con from 0.00209496 to 0.00209496
Heightened Def Con from 0.00209497 to 0.00209497
Heightened Def Con from 0.00210547 to 0.00210547
Heightened Def Con from 0.00211492 to 0.00211492
Heightened Def Con from 0.00211492 to 0.00211493
Heightened Def Con from 0.00212551 to 0.00212551
Heightened Def Con from 0.00213487 to 0.00213488
Heightened Def Con from 0.00213488 to 0.00213489
Heightened Def Con from 0.00214555 to 0.00214556
Heightened Def Con from 0.00215483 to 0.00215484
Heightened Def Con from 0.00215484 to 0.00215485
Heightened Def Con from 0.00216559 to 0.0021656
Heightened Def Con from 0.00217479 to 0.0021748
Heightened Def Con from 0.0021748 to 0.00217481
Heightened Def Con from 0.00218563 to 0.00218564
Heightened Def Con from 0.00219475 to 0.00219476
Heightened Def Con from 0.00219476 to 0.00219477
Heightened Def Con from 0.00220567 to 0.00220568
Heightened Def Con from 0.00221471 to 0.00221472
Heightened Def Con from 0.00221472 to 0.00221473
Heightened Def Con from 0.00222571 to 0.00222572
Heightened Def Con from 0.00223467 to 0.00223468
Heightened Def Con from 0.00223468 to 0.00223468
Heightened Def Con from 0.00224575 to 0.00224576
Heightened Def Con from 0.00225463 to 0.00225464
Heightened Def Con from 0.00225464 to 0.00225464
Heightened Def Con from 0.00226579 to 0.0022658
Heightened Def Con from 0.00227459 to 0.0022746
Heightened Def Con from 0.0022746 to 0.0022746
Heightened Def Con from 0.00228583 to 0.00228584
Heightened Def Con from 0.00229455 to 0.00229456
Heightened Def Con from 0.00229456 to 0.00229456
Heightened Def Con from 0.00230587 to 0.00230588
Heightened Def Con from 0.00231451 to 0.00231452
Heightened Def Con from 0.00231452 to 0.00231453
Heightened Def Con from 0.00232591 to 0.00232592
Heightened Def Con from 0.00233447 to 0.00233448
Heightened Def Con from 0.00233448 to 0.00233449
Heightened Def Con from 0.00234595 to 0.00234596
Heightened Def Con from 0.00235443 to 0.00235444
Heightened Def Con from 0.00235444 to 0.00235445
Heightened Def Con from 0.00236599 to 0.002366
Heightened Def Con from 0.00237439 to 0.0023744
Heightened Def Con from 0.0023744 to 0.00237441
Heightened Def Con from 0.00238603 to 0.00238604
Heightened Def Con from 0.00239436 to 0.00239436
Heightened Def Con from 0.00239437 to 0.00239437
Heightened Def Con from 0.00240607 to 0.00240607
Heightened Def Con from 0.00241432 to 0.00241432
Heightened Def Con from 0.00241433 to 0.00241433
Heightened Def Con from 0.00242611 to 0.00242611
Heightened Def Con from 0.00243428 to 0.00243428
Heightened Def Con from 0.00243429 to 0.00243429
Heightened Def Con from 0.00244615 to 0.00244615
Heightened Def Con from 0.00245424 to 0.00245425
Heightened Def Con from 0.00245425 to 0.00245426
Heightened Def Con from 0.00246618 to 0.00246619
Heightened Def Con from 0.0024742 to 0.00247421
Heightened Def Con from 0.00247421 to 0.00247422
Heightened Def Con from 0.00248622 to 0.00248623
Heightened Def Con from 0.00249417 to 0.00249417
Heightened Def Con from 0.00249418 to 0.00249418
Heightened Def Con from 0.00250626 to 0.00250626
Heightened Def Con from 0.00251413 to 0.00251413
Heightened Def Con from 0.00251414 to 0.00251414
Heightened Def Con from 0.0025263 to 0.0025263
Heightened Def Con from 0.00253409 to 0.0025341
Heightened Def Con from 0.0025341 to 0.00253411
Heightened Def Con from 0.00254633 to 0.00254634
Heightened Def Con from 0.00255406 to 0.00255406
Heightened Def Con from 0.00255407 to 0.00255407
Heightened Def Con from 0.00256637 to 0.00256637
Heightened Def Con from 0.00257402 to 0.00257402
Heightened Def Con from 0.00257403 to 0.00257403
Heightened Def Con from 0.00258641 to 0.00258641
Heightened Def Con from 0.00259398 to 0.00259399
Heightened Def Con from 0.00259399 to 0.002594
Heightened Def Con from 0.00260644 to 0.00260645
Heightened Def Con from 0.00261395 to 0.00261395
Heightened Def Con from 0.00261396 to 0.00261396
Heightened Def Con from 0.00262648 to 0.00262648
Heightened Def Con from 0.00263391 to 0.00263392
Heightened Def Con from 0.00263392 to 0.00263393
Heightened Def Con from 0.00264651 to 0.00264652
Heightened Def Con from 0.00265388 to 0.00265388
Heightened Def Con from 0.00265389 to 0.00265389
Heightened Def Con from 0.00266655 to 0.00266656
Heightened Def Con from 0.00267384 to 0.00267384
Heightened Def Con from 0.00267385 to 0.00267385
Heightened Def Con from 0.00268659 to 0.00268659
Heightened Def Con from 0.00269381 to 0.00269381
Heightened Def Con from 0.00269382 to 0.00269382
Heightened Def Con from 0.00270662 to 0.00270663
Heightened Def Con from 0.00271377 to 0.00271377
Heightened Def Con from 0.00271378 to 0.00271378
Heightened Def Con from 0.00272665 to 0.00272666
Heightened Def Con from 0.00273374 to 0.00273374
Heightened Def Con from 0.00273375 to 0.00273375
Heightened Def Con from 0.00274669 to 0.00274669
Heightened Def Con from 0.0027537 to 0.00275371
Heightened Def Con from 0.00275371 to 0.00275372
Heightened Def Con from 0.00276672 to 0.00276673
Heightened Def Con from 0.00277367 to 0.00277367
Heightened Def Con from 0.00277368 to 0.00277368
Heightened Def Con from 0.00278676 to 0.00278676
Heightened Def Con from 0.00279363 to 0.00279364
Heightened Def Con from 0.00279364 to 0.00279365
Heightened Def Con from 0.00280679 to 0.0028068
Heightened Def Con from 0.0028136 to 0.0028136
Heightened Def Con from 0.00281361 to 0.00281361
Heightened Def Con from 0.00282683 to 0.00282683
Heightened Def Con from 0.00283357 to 0.00283357
Heightened Def Con from 0.00283358 to 0.00283358
Heightened Def Con from 0.00284686 to 0.00284686
Heightened Def Con from 0.00285353 to 0.00285354
Heightened Def Con from 0.00285354 to 0.00285355
Heightened Def Con from 0.00286689 to 0.0028669
Heightened Def Con from 0.0028735 to 0.00287351
Heightened Def Con from 0.00287351 to 0.00287352
Heightened Def Con from 0.00288692 to 0.00288693
Heightened Def Con from 0.00289347 to 0.00289347
Heightened Def Con from 0.00289348 to 0.00289348
Heightened Def Con from 0.00290696 to 0.00290696
Heightened Def Con from 0.00291344 to 0.00291344
Heightened Def Con from 0.00291345 to 0.00291345
Heightened Def Con from 0.00292699 to 0.00292699
Heightened Def Con from 0.0029334 to 0.00293341
Heightened Def Con from 0.00293341 to 0.00293342
Heightened Def Con from 0.00294702 to 0.00294703
Heightened Def Con from 0.00295337 to 0.00295338
Heightened Def Con from 0.00295338 to 0.00295339
Heightened Def Con from 0.00296705 to 0.00296706
Heightened Def Con from 0.00297334 to 0.00297335
Heightened Def Con from 0.00297335 to 0.00297336
Heightened Def Con from 0.00298708 to 0.00298709
Heightened Def Con from 0.00299331 to 0.00299331
Heightened Def Con from 0.00299332 to 0.00299332
Heightened Def Con from 0.00300711 to 0.00300712
Heightened Def Con from 0.00301328 to 0.00301328
Heightened Def Con from 0.00301329 to 0.00301329
Heightened Def Con from 0.00302715 to 0.00302715
Heightened Def Con from 0.00303325 to 0.00303325
Heightened Def Con from 0.00303326 to 0.00303326
Heightened Def Con from 0.00304718 to 0.00304718
Heightened Def Con from 0.00305322 to 0.00305322
Heightened Def Con from 0.00305323 to 0.00305323
Heightened Def Con from 0.00306721 to 0.00306721
Heightened Def Con from 0.00307319 to 0.00307319
Heightened Def Con from 0.0030732 to 0.0030732
Heightened Def Con from 0.00308724 to 0.00308724
Heightened Def Con from 0.00309316 to 0.00309316
Heightened Def Con from 0.00309317 to 0.00309317
Heightened Def Con from 0.00310727 to 0.00310727
Heightened Def Con from 0.00311313 to 0.00311313
Heightened Def Con from 0.00311314 to 0.00311314
Heightened Def Con from 0.0031273 to 0.0031273
Heightened Def Con from 0.0031331 to 0.0031331
Heightened Def Con from 0.00313311 to 0.00313311
Heightened Def Con from 0.00314732 to 0.00314733
Heightened Def Con from 0.00315307 to 0.00315307
Heightened Def Con from 0.00315308 to 0.00315308
Heightened Def Con from 0.00316735 to 0.00316736
Heightened Def Con from 0.00317304 to 0.00317305
Heightened Def Con from 0.00317305 to 0.00317306
Heightened Def Con from 0.00318738 to 0.00318739
Heightened Def Con from 0.00319301 to 0.00319302
Heightened Def Con from 0.00319302 to 0.00319303
Heightened Def Con from 0.00320741 to 0.00320742
Heightened Def Con from 0.00321298 to 0.00321299
Heightened Def Con from 0.00321299 to 0.003213
Heightened Def Con from 0.00322744 to 0.00322744
Heightened Def Con from 0.00323296 to 0.00323296
Heightened Def Con from 0.00323297 to 0.00323297
Heightened Def Con from 0.00324747 to 0.00324747
Heightened Def Con from 0.00325293 to 0.00325293
Heightened Def Con from 0.00325294 to 0.00325294
Heightened Def Con from 0.00326749 to 0.0032675
Heightened Def Con from 0.0032729 to 0.00327291
Heightened Def Con from 0.00327291 to 0.00327292
Heightened Def Con from 0.00328752 to 0.00328753
Heightened Def Con from 0.00329288 to 0.00329288
Heightened Def Con from 0.00329289 to 0.00329289
Heightened Def Con from 0.00330755 to 0.00330755
Heightened Def Con from 0.00331285 to 0.00331285
Heightened Def Con from 0.00331286 to 0.00331286
Heightened Def Con from 0.00332757 to 0.00332758
Heightened Def Con from 0.00333282 to 0.00333283
Heightened Def Con from 0.00333283 to 0.00333284
Heightened Def Con from 0.0033476 to 0.00334761
Heightened Def Con from 0.0033528 to 0.0033528
Heightened Def Con from 0.00335281 to 0.00335281
Heightened Def Con from 0.00336763 to 0.00336763
Heightened Def Con from 0.00337277 to 0.00337277
Heightened Def Con from 0.00337278 to 0.00337278
Heightened Def Con from 0.00338765 to 0.00338766
Heightened Def Con from 0.00339274 to 0.00339275
Heightened Def Con from 0.00339275 to 0.00339276
Heightened Def Con from 0.00340768 to 0.00340768
Heightened Def Con from 0.00341272 to 0.00341272
Heightened Def Con from 0.00341273 to 0.00341273
Heightened Def Con from 0.0034277 to 0.00342771
Heightened Def Con from 0.00343269 to 0.0034327
Heightened Def Con from 0.0034327 to 0.00343271
Heightened Def Con from 0.00344773 to 0.00344773
Heightened Def Con from 0.00345267 to 0.00345267
Heightened Def Con from 0.00345268 to 0.00345268
Heightened Def Con from 0.00346775 to 0.00346776
Heightened Def Con from 0.00347264 to 0.00347265
Heightened Def Con from 0.00347265 to 0.00347266
Heightened Def Con from 0.00348778 to 0.00348778
Heightened Def Con from 0.00349262 to 0.00349262
Heightened Def Con from 0.00349263 to 0.00349263
Heightened Def Con from 0.0035078 to 0.00350781
Heightened Def Con from 0.0035126 to 0.0035126
Heightened Def Con from 0.00351261 to 0.00351261
Heightened Def Con from 0.00352783 to 0.00352783
Heightened Def Con from 0.00353257 to 0.00353258
Heightened Def Con from 0.00353258 to 0.00353259
Heightened Def Con from 0.00354785 to 0.00354785
Heightened Def Con from 0.00355255 to 0.00355255
Heightened Def Con from 0.00355256 to 0.00355256
Heightened Def Con from 0.00356787 to 0.00356788
Heightened Def Con from 0.00357253 to 0.00357253
Heightened Def Con from 0.00357254 to 0.00357254
Heightened Def Con from 0.00358789 to 0.0035879
Heightened Def Con from 0.0035925 to 0.00359251
Heightened Def Con from 0.00359251 to 0.00359252
Heightened Def Con from 0.00360792 to 0.00360792
Heightened Def Con from 0.00361248 to 0.00361249
Heightened Def Con from 0.00361249 to 0.0036125
Heightened Def Con from 0.00362794 to 0.00362794
Heightened Def Con from 0.00363246 to 0.00363246
Heightened Def Con from 0.00363247 to 0.00363247
Heightened Def Con from 0.00364796 to 0.00364797
Heightened Def Con from 0.00365244 to 0.00365244
Heightened Def Con from 0.00365245 to 0.00365245
Heightened Def Con from 0.00366798 to 0.00366799
Heightened Def Con from 0.00367242 to 0.00367242
Heightened Def Con from 0.00367243 to 0.00367243
Heightened Def Con from 0.003688 to 0.00368801
Heightened Def Con from 0.00369239 to 0.0036924
Heightened Def Con from 0.0036924 to 0.00369241
Heightened Def Con from 0.00370803 to 0.00370803
Heightened Def Con from 0.00371237 to 0.00371238
Heightened Def Con from 0.00371238 to 0.00371239
Heightened Def Con from 0.00372805 to 0.00372805
Heightened Def Con from 0.00373235 to 0.00373236
Heightened Def Con from 0.00373236 to 0.00373237
Heightened Def Con from 0.00374807 to 0.00374807
Heightened Def Con from 0.00375233 to 0.00375234
Heightened Def Con from 0.00375234 to 0.00375235
Heightened Def Con from 0.00376809 to 0.00376809
Heightened Def Con from 0.00377231 to 0.00377232
Heightened Def Con from 0.00377232 to 0.00377233
Heightened Def Con from 0.00378811 to 0.00378811
Heightened Def Con from 0.00379229 to 0.0037923
Heightened Def Con from 0.0037923 to 0.00379231
Heightened Def Con from 0.00380813 to 0.00380813
Heightened Def Con from 0.00381227 to 0.00381228
Heightened Def Con from 0.00381228 to 0.00381229
Heightened Def Con from 0.00382815 to 0.00382815
Heightened Def Con from 0.00383226 to 0.00383226
Heightened Def Con from 0.00383227 to 0.00383227
Heightened Def Con from 0.00384816 to 0.00384817
Heightened Def Con from 0.00385224 to 0.00385224
Heightened Def Con from 0.00385225 to 0.00385225
Heightened Def Con from 0.00386818 to 0.00386819
Heightened Def Con from 0.00387222 to 0.00387222
Heightened Def Con from 0.00387223 to 0.00387223
Heightened Def Con from 0.0038882 to 0.00388821
Heightened Def Con from 0.0038922 to 0.0038922
Heightened Def Con from 0.00389221 to 0.00389221
Heightened Def Con from 0.00390822 to 0.00390822
Heightened Def Con from 0.00391218 to 0.00391219
Heightened Def Con from 0.00391219 to 0.0039122
Heightened Def Con from 0.00392824 to 0.00392824
Heightened Def Con from 0.00393216 to 0.00393217
Heightened Def Con from 0.00393217 to 0.00393218
Heightened Def Con from 0.00394825 to 0.00394826
Heightened Def Con from 0.00395215 to 0.00395215
Heightened Def Con from 0.00395216 to 0.00395216
Heightened Def Con from 0.00396827 to 0.00396827
Heightened Def Con from 0.00397213 to 0.00397213
Heightened Def Con from 0.00397214 to 0.00397214
Heightened Def Con from 0.00398829 to 0.00398829
Heightened Def Con from 0.00399211 to 0.00399212
Heightened Def Con from 0.00399212 to 0.00399213
Heightened Def Con from 0.0040083 to 0.00400831
Heightened Def Con from 0.0040121 to 0.0040121
Heightened Def Con from 0.00401211 to 0.00401211
Heightened Def Con from 0.00402832 to 0.00402832
Heightened Def Con from 0.00403208 to 0.00403209
Heightened Def Con from 0.00403209 to 0.0040321
Heightened Def Con from 0.00404833 to 0.00404834
Heightened Def Con from 0.00405207 to 0.00405207
Heightened Def Con from 0.00405208 to 0.00405208
Heightened Def Con from 0.00406835 to 0.00406836
Heightened Def Con from 0.00407205 to 0.00407205
Heightened Def Con from 0.00407206 to 0.00407206
Heightened Def Con from 0.00408837 to 0.00408837
Heightened Def Con from 0.00409204 to 0.00409204
Heightened Def Con from 0.00409205 to 0.00409205
Heightened Def Con from 0.00410838 to 0.00410839
Heightened Def Con from 0.00411202 to 0.00411202
Heightened Def Con from 0.00411203 to 0.00411203
Heightened Def Con from 0.00412839 to 0.0041284
Heightened Def Con from 0.00413201 to 0.00413201
Heightened Def Con from 0.00413202 to 0.00413202
Heightened Def Con from 0.00414841 to 0.00414841
Heightened Def Con from 0.00415199 to 0.004152
Heightened Def Con from 0.004152 to 0.00415201
Heightened Def Con from 0.00416842 to 0.00416843
Heightened Def Con from 0.00417198 to 0.00417198
Heightened Def Con from 0.00417199 to 0.00417199
Heightened Def Con from 0.00418844 to 0.00418844
Heightened Def Con from 0.00419196 to 0.00419197
Heightened Def Con from 0.00419197 to 0.00419198
Heightened Def Con from 0.00420845 to 0.00420845
Heightened Def Con from 0.00421195 to 0.00421196
Heightened Def Con from 0.00421196 to 0.00421197
Heightened Def Con from 0.00422846 to 0.00422847
Heightened Def Con from 0.00423194 to 0.00423194
Heightened Def Con from 0.00423195 to 0.00423195
Heightened Def Con from 0.00424847 to 0.00424848
Heightened Def Con from 0.00425193 to 0.00425193
Heightened Def Con from 0.00425194 to 0.00425194
Heightened Def Con from 0.00426849 to 0.00426849
Heightened Def Con from 0.00427191 to 0.00427192
Heightened Def Con from 0.00427192 to 0.00427193
Heightened Def Con from 0.0042885 to 0.0042885
Heightened Def Con from 0.0042919 to 0.00429191
Heightened Def Con from 0.00429191 to 0.00429192
Heightened Def Con from 0.00430851 to 0.00430851
Heightened Def Con from 0.00431189 to 0.0043119
Heightened Def Con from 0.0043119 to 0.00431191
Heightened Def Con from 0.00432852 to 0.00432853
Heightened Def Con from 0.00433188 to 0.00433188
Heightened Def Con from 0.00433189 to 0.00433189
Heightened Def Con from 0.00434853 to 0.00434854
Heightened Def Con from 0.00435187 to 0.00435187
Heightened Def Con from 0.00435188 to 0.00435188
Heightened Def Con from 0.00436854 to 0.00436855
Heightened Def Con from 0.00437186 to 0.00437186
Heightened Def Con from 0.00437187 to 0.00437187
Heightened Def Con from 0.00438855 to 0.00438856
Heightened Def Con from 0.00439185 to 0.00439185
Heightened Def Con from 0.00439186 to 0.00439186
Heightened Def Con from 0.00440856 to 0.00440857
Heightened Def Con from 0.00441184 to 0.00441184
Heightened Def Con from 0.00441185 to 0.00441185
Heightened Def Con from 0.00442857 to 0.00442858
Heightened Def Con from 0.00443183 to 0.00443183
Heightened Def Con from 0.00443184 to 0.00443184
Heightened Def Con from 0.00444858 to 0.00444859
Heightened Def Con from 0.00445182 to 0.00445182
Heightened Def Con from 0.00445183 to 0.00445183
Heightened Def Con from 0.00446859 to 0.0044686
Heightened Def Con from 0.00447181 to 0.00447182
Heightened Def Con from 0.00447182 to 0.00447183
Heightened Def Con from 0.0044886 to 0.0044886
Heightened Def Con from 0.0044918 to 0.00449181
Heightened Def Con from 0.00449181 to 0.00449182
Heightened Def Con from 0.00450861 to 0.00450861
Heightened Def Con from 0.00451179 to 0.0045118
Heightened Def Con from 0.0045118 to 0.00451181
Heightened Def Con from 0.00452862 to 0.00452862
Heightened Def Con from 0.00453179 to 0.00453179
Heightened Def Con from 0.0045318 to 0.0045318
Heightened Def Con from 0.00454862 to 0.00454863
Heightened Def Con from 0.00455178 to 0.00455178
Heightened Def Con from 0.00455179 to 0.00455179
Heightened Def Con from 0.00456863 to 0.00456864
Heightened Def Con from 0.00457177 to 0.00457178
Heightened Def Con from 0.00457178 to 0.00457179
Heightened Def Con from 0.00458864 to 0.00458864
Heightened Def Con from 0.00459176 to 0.00459177
Heightened Def Con from 0.00459177 to 0.00459178
Heightened Def Con from 0.00460864 to 0.00460865
Heightened Def Con from 0.00461176 to 0.00461176
Heightened Def Con from 0.00461177 to 0.00461177
Heightened Def Con from 0.00462865 to 0.00462866
Heightened Def Con from 0.00463175 to 0.00463176
Heightened Def Con from 0.00463176 to 0.00463177
Heightened Def Con from 0.00464866 to 0.00464866
Heightened Def Con from 0.00465175 to 0.00465175
Heightened Def Con from 0.00465176 to 0.00465176
Heightened Def Con from 0.00466866 to 0.00466867
Heightened Def Con from 0.00467174 to 0.00467174
Heightened Def Con from 0.00467175 to 0.00467175
Heightened Def Con from 0.00468867 to 0.00468867
Heightened Def Con from 0.00469174 to 0.00469174
Heightened Def Con from 0.00469175 to 0.00469175
Heightened Def Con from 0.00470867 to 0.00470868
Heightened Def Con from 0.00471173 to 0.00471173
Heightened Def Con from 0.00471174 to 0.00471174
Heightened Def Con from 0.00472868 to 0.00472868
Heightened Def Con from 0.00473173 to 0.00473173
Heightened Def Con from 0.00473174 to 0.00473174
Heightened Def Con from 0.00474868 to 0.00474869
Heightened Def Con from 0.00475172 to 0.00475173
Heightened Def Con from 0.00475173 to 0.00475174
Heightened Def Con from 0.00476869 to 0.00476869
Heightened Def Con from 0.00477172 to 0.00477172
Heightened Def Con from 0.00477173 to 0.00477173
Heightened Def Con from 0.00478869 to 0.00478869
Heightened Def Con from 0.00479171 to 0.00479172
Heightened Def Con from 0.00479172 to 0.00479173
Heightened Def Con from 0.00480869 to 0.0048087
Heightened Def Con from 0.00481171 to 0.00481171
Heightened Def Con from 0.00481172 to 0.00481172
Heightened Def Con from 0.0048287 to 0.0048287
Heightened Def Con from 0.00483171 to 0.00483171
Heightened Def Con from 0.00483172 to 0.00483172
Heightened Def Con from 0.0048487 to 0.0048487
Heightened Def Con from 0.0048517 to 0.00485171
Heightened Def Con from 0.00485171 to 0.00485172
Heightened Def Con from 0.0048687 to 0.00486871
Heightened Def Con from 0.0048717 to 0.00487171
Heightened Def Con from 0.00487171 to 0.00487172
Heightened Def Con from 0.0048887 to 0.00488871
Heightened Def Con from 0.0048917 to 0.0048917
Heightened Def Con from 0.00489171 to 0.00489171
Heightened Def Con from 0.0049087 to 0.00490871
Heightened Def Con from 0.0049117 to 0.0049117
Heightened Def Con from 0.00491171 to 0.00491171
Heightened Def Con from 0.00492871 to 0.00492871
Heightened Def Con from 0.0049317 to 0.0049317
Heightened Def Con from 0.00493171 to 0.00493171
Heightened Def Con from 0.00494871 to 0.00494871
Heightened Def Con from 0.0049517 to 0.0049517
Heightened Def Con from 0.00495171 to 0.00495171
Heightened Def Con from 0.00496871 to 0.00496871
Heightened Def Con from 0.0049717 to 0.0049717
Heightened Def Con from 0.00497171 to 0.00497171
Heightened Def Con from 0.00498871 to 0.00498871
Heightened Def Con from 0.0049917 to 0.0049917
Heightened Def Con from 0.00499171 to 0.00499171
Heightened Def Con from 0.00500871 to 0.00500871
Heightened Def Con from 0.00501169 to 0.0050117
Heightened Def Con from 0.0050117 to 0.00501171
Heightened Def Con from 0.00502871 to 0.00502871
Heightened Def Con from 0.0050317 to 0.0050317
Heightened Def Con from 0.00503171 to 0.00503171
Heightened Def Con from 0.00504871 to 0.00504871
Heightened Def Con from 0.0050517 to 0.0050517
Heightened Def Con from 0.00505171 to 0.00505171
Heightened Def Con from 0.00506871 to 0.00506871
Heightened Def Con from 0.0050717 to 0.0050717
Heightened Def Con from 0.00507171 to 0.00507171
Heightened Def Con from 0.0050887 to 0.00508871
Heightened Def Con from 0.0050917 to 0.0050917
Heightened Def Con from 0.00509171 to 0.00509171
Heightened Def Con from 0.0051087 to 0.00510871
Heightened Def Con from 0.0051117 to 0.0051117
Heightened Def Con from 0.00511171 to 0.00511171
Heightened Def Con from 0.0051287 to 0.00512871
Heightened Def Con from 0.0051317 to 0.00513171
Heightened Def Con from 0.00513171 to 0.00513172
Heightened Def Con from 0.0051487 to 0.0051487
Heightened Def Con from 0.00515171 to 0.00515171
Heightened Def Con from 0.00515172 to 0.00515172
Heightened Def Con from 0.0051687 to 0.0051687
Heightened Def Con from 0.00517171 to 0.00517171
Heightened Def Con from 0.00517172 to 0.00517172
Heightened Def Con from 0.00518869 to 0.0051887
Heightened Def Con from 0.00519171 to 0.00519171
Heightened Def Con from 0.00519172 to 0.00519172
Heightened Def Con from 0.00520869 to 0.0052087
Heightened Def Con from 0.00521171 to 0.00521172
Heightened Def Con from 0.00521172 to 0.00521173
Heightened Def Con from 0.00522869 to 0.00522869
Heightened Def Con from 0.00523172 to 0.00523172
Heightened Def Con from 0.00523173 to 0.00523173
Heightened Def Con from 0.00524868 to 0.00524869
Heightened Def Con from 0.00525172 to 0.00525173
Heightened Def Con from 0.00525173 to 0.00525174
Heightened Def Con from 0.00526868 to 0.00526868
Heightened Def Con from 0.00527173 to 0.00527173
Heightened Def Con from 0.00527174 to 0.00527174
Heightened Def Con from 0.00528867 to 0.00528868
Heightened Def Con from 0.00529173 to 0.00529173
Heightened Def Con from 0.00529174 to 0.00529174
Heightened Def Con from 0.00530867 to 0.00530867
Heightened Def Con from 0.00531174 to 0.00531174
Heightened Def Con from 0.00531175 to 0.00531175
Heightened Def Con from 0.00532866 to 0.00532867
Heightened Def Con from 0.00533174 to 0.00533174
Heightened Def Con from 0.00533175 to 0.00533175
Heightened Def Con from 0.00534866 to 0.00534866
Heightened Def Con from 0.00535175 to 0.00535175
Heightened Def Con from 0.00535176 to 0.00535176
Heightened Def Con from 0.00536865 to 0.00536866
Heightened Def Con from 0.00537175 to 0.00537176
Heightened Def Con from 0.00537176 to 0.00537177
Heightened Def Con from 0.00538865 to 0.00538865
Heightened Def Con from 0.00539176 to 0.00539176
Heightened Def Con from 0.00539177 to 0.00539177
Heightened Def Con from 0.00540864 to 0.00540864
Heightened Def Con from 0.00541177 to 0.00541177
Heightened Def Con from 0.00541178 to 0.00541178
Heightened Def Con from 0.00542863 to 0.00542864
Heightened Def Con from 0.00543177 to 0.00543178
Heightened Def Con from 0.00543178 to 0.00543179
Heightened Def Con from 0.00544863 to 0.00544863
Heightened Def Con from 0.00545178 to 0.00545178
Heightened Def Con from 0.00545179 to 0.00545179
Heightened Def Con from 0.00546862 to 0.00546862
Heightened Def Con from 0.00547179 to 0.00547179
Heightened Def Con from 0.0054718 to 0.0054718
Heightened Def Con from 0.00548861 to 0.00548861
Heightened Def Con from 0.0054918 to 0.0054918
Heightened Def Con from 0.00549181 to 0.00549181
Heightened Def Con from 0.0055086 to 0.00550861
Heightened Def Con from 0.0055118 to 0.00551181
Heightened Def Con from 0.00551181 to 0.00551182
Heightened Def Con from 0.00552859 to 0.0055286
Heightened Def Con from 0.00553181 to 0.00553182
Heightened Def Con from 0.00553182 to 0.00553183
Heightened Def Con from 0.00554858 to 0.00554859
Heightened Def Con from 0.00555182 to 0.00555183
Heightened Def Con from 0.00555183 to 0.00555184
Heightened Def Con from 0.00556857 to 0.00556858
Heightened Def Con from 0.00557183 to 0.00557183
Heightened Def Con from 0.00557184 to 0.00557184
Heightened Def Con from 0.00558857 to 0.00558857
Heightened Def Con from 0.00559184 to 0.00559184
Heightened Def Con from 0.00559185 to 0.00559185
Heightened Def Con from 0.00560856 to 0.00560856
Heightened Def Con from 0.00561185 to 0.00561185
Heightened Def Con from 0.00561186 to 0.00561186
Heightened Def Con from 0.00562854 to 0.00562855
Heightened Def Con from 0.00563186 to 0.00563186
Heightened Def Con from 0.00563187 to 0.00563187
Heightened Def Con from 0.00564853 to 0.00564854
Heightened Def Con from 0.00565187 to 0.00565188
Heightened Def Con from 0.00565188 to 0.00565189
Heightened Def Con from 0.00566852 to 0.00566853
Heightened Def Con from 0.00567188 to 0.00567189
Heightened Def Con from 0.00567189 to 0.0056719
Heightened Def Con from 0.00568851 to 0.00568852
Heightened Def Con from 0.00569189 to 0.0056919
Heightened Def Con from 0.0056919 to 0.00569191
Heightened Def Con from 0.0057085 to 0.00570851
Heightened Def Con from 0.0057119 to 0.00571191
Heightened Def Con from 0.00571191 to 0.00571192
Heightened Def Con from 0.00572849 to 0.00572849
Heightened Def Con from 0.00573192 to 0.00573192
Heightened Def Con from 0.00573193 to 0.00573193
Heightened Def Con from 0.00574848 to 0.00574848
Heightened Def Con from 0.00575193 to 0.00575193
Heightened Def Con from 0.00575194 to 0.00575194
Heightened Def Con from 0.00576846 to 0.00576847
Heightened Def Con from 0.00577194 to 0.00577194
Heightened Def Con from 0.00577195 to 0.00577195
Heightened Def Con from 0.00578845 to 0.00578846
Heightened Def Con from 0.00579195 to 0.00579196
Heightened Def Con from 0.00579196 to 0.00579197
Heightened Def Con from 0.00580844 to 0.00580844
Heightened Def Con from 0.00581197 to 0.00581197
Heightened Def Con from 0.00581198 to 0.00581198
Heightened Def Con from 0.00582843 to 0.00582843
Heightened Def Con from 0.00583198 to 0.00583198
Heightened Def Con from 0.00583199 to 0.00583199
Heightened Def Con from 0.00584841 to 0.00584842
Heightened Def Con from 0.00585199 to 0.005852
Heightened Def Con from 0.005852 to 0.00585201
Heightened Def Con from 0.0058684 to 0.0058684
Heightened Def Con from 0.00587201 to 0.00587201
Heightened Def Con from 0.00587202 to 0.00587202
Heightened Def Con from 0.00588838 to 0.00588839
Heightened Def Con from 0.00589202 to 0.00589203
Heightened Def Con from 0.00589203 to 0.00589204
Heightened Def Con from 0.00590837 to 0.00590837
Heightened Def Con from 0.00591204 to 0.00591204
Heightened Def Con from 0.00591205 to 0.00591205
Heightened Def Con from 0.00592835 to 0.00592836
Heightened Def Con from 0.00593205 to 0.00593206
Heightened Def Con from 0.00593206 to 0.00593207
Heightened Def Con from 0.00594834 to 0.00594834
Heightened Def Con from 0.00595207 to 0.00595207
Heightened Def Con from 0.00595208 to 0.00595208
Heightened Def Con from 0.00596832 to 0.00596833
Heightened Def Con from 0.00597208 to 0.00597209
Heightened Def Con from 0.00597209 to 0.0059721
Heightened Def Con from 0.00598831 to 0.00598831
Heightened Def Con from 0.0059921 to 0.0059921
Heightened Def Con from 0.00599211 to 0.00599211
Heightened Def Con from 0.00600829 to 0.0060083
Heightened Def Con from 0.00601212 to 0.00601212
Heightened Def Con from 0.00601213 to 0.00601213
Heightened Def Con from 0.00602827 to 0.00602828
Heightened Def Con from 0.00603213 to 0.00603214
Heightened Def Con from 0.00603214 to 0.00603215
Heightened Def Con from 0.00604826 to 0.00604826
Heightened Def Con from 0.00605215 to 0.00605215
Heightened Def Con from 0.00605216 to 0.00605216
Heightened Def Con from 0.00606824 to 0.00606825
Heightened Def Con from 0.00607217 to 0.00607217
Heightened Def Con from 0.00607218 to 0.00607218
Heightened Def Con from 0.00608822 to 0.00608823
Heightened Def Con from 0.00609218 to 0.00609219
Heightened Def Con from 0.00609219 to 0.0060922
Heightened Def Con from 0.0061082 to 0.00610821
Heightened Def Con from 0.0061122 to 0.00611221
Heightened Def Con from 0.00611221 to 0.00611222
Heightened Def Con from 0.00612819 to 0.00612819
Heightened Def Con from 0.00613222 to 0.00613223
Heightened Def Con from 0.00613223 to 0.00613224
Heightened Def Con from 0.00614817 to 0.00614817
Heightened Def Con from 0.00615224 to 0.00615224
Heightened Def Con from 0.00615225 to 0.00615225
Heightened Def Con from 0.00616815 to 0.00616815
Heightened Def Con from 0.00617226 to 0.00617226
Heightened Def Con from 0.00617227 to 0.00617227
Heightened Def Con from 0.00618813 to 0.00618814
Heightened Def Con from 0.00619228 to 0.00619228
Heightened Def Con from 0.00619229 to 0.00619229
Heightened Def Con from 0.00620811 to 0.00620812
Heightened Def Con from 0.0062123 to 0.0062123
Heightened Def Con from 0.00621231 to 0.00621231
Heightened Def Con from 0.00622809 to 0.0062281
Heightened Def Con from 0.00623232 to 0.00623232
Heightened Def Con from 0.00623233 to 0.00623233
Heightened Def Con from 0.00624807 to 0.00624808
Heightened Def Con from 0.00625234 to 0.00625234
Heightened Def Con from 0.00625235 to 0.00625235
Heightened Def Con from 0.00626805 to 0.00626806
Heightened Def Con from 0.00627236 to 0.00627236
Heightened Def Con from 0.00627237 to 0.00627237
Heightened Def Con from 0.00628803 to 0.00628804
Heightened Def Con from 0.00629238 to 0.00629238
Heightened Def Con from 0.00629239 to 0.00629239
Heightened Def Con from 0.00630801 to 0.00630801
Heightened Def Con from 0.0063124 to 0.0063124
Heightened Def Con from 0.00631241 to 0.00631241
Heightened Def Con from 0.00632799 to 0.00632799
Heightened Def Con from 0.00633242 to 0.00633243
Heightened Def Con from 0.00633243 to 0.00633244
Heightened Def Con from 0.00634797 to 0.00634797
Heightened Def Con from 0.00635244 to 0.00635245
Heightened Def Con from 0.00635245 to 0.00635246
Heightened Def Con from 0.00636794 to 0.00636795
Heightened Def Con from 0.00637246 to 0.00637247
Heightened Def Con from 0.00637247 to 0.00637248
Heightened Def Con from 0.00638792 to 0.00638793
Heightened Def Con from 0.00639249 to 0.00639249
Heightened Def Con from 0.0063925 to 0.0063925
Heightened Def Con from 0.0064079 to 0.00640791
Heightened Def Con from 0.00641251 to 0.00641251
Heightened Def Con from 0.00641252 to 0.00641252
Heightened Def Con from 0.00642788 to 0.00642788
Heightened Def Con from 0.00643253 to 0.00643254
Heightened Def Con from 0.00643254 to 0.00643255
Heightened Def Con from 0.00644785 to 0.00644786
Heightened Def Con from 0.00645255 to 0.00645256
Heightened Def Con from 0.00645256 to 0.00645257
Heightened Def Con from 0.00646783 to 0.00646784
Heightened Def Con from 0.00647258 to 0.00647258
Heightened Def Con from 0.00647259 to 0.00647259
Heightened Def Con from 0.00648781 to 0.00648781
Heightened Def Con from 0.0064926 to 0.00649261
Heightened Def Con from 0.00649261 to 0.00649262
Heightened Def Con from 0.00650778 to 0.00650779
Heightened Def Con from 0.00651263 to 0.00651263
Heightened Def Con from 0.00651264 to 0.00651264
Heightened Def Con from 0.00652776 to 0.00652777
Heightened Def Con from 0.00653265 to 0.00653265
Heightened Def Con from 0.00653266 to 0.00653266
Heightened Def Con from 0.00654773 to 0.00654774
Heightened Def Con from 0.00655268 to 0.00655268
Heightened Def Con from 0.00655269 to 0.00655269
Heightened Def Con from 0.00656771 to 0.00656772
Heightened Def Con from 0.0065727 to 0.0065727
Heightened Def Con from 0.00657271 to 0.00657271
Heightened Def Con from 0.00658769 to 0.00658769
Heightened Def Con from 0.00659273 to 0.00659273
Heightened Def Con from 0.00659274 to 0.00659274
Heightened Def Con from 0.00660766 to 0.00660766
Heightened Def Con from 0.00661275 to 0.00661275
Heightened Def Con from 0.00661276 to 0.00661276
Heightened Def Con from 0.00662763 to 0.00662764
Heightened Def Con from 0.00663278 to 0.00663278
Heightened Def Con from 0.00663279 to 0.00663279
Heightened Def Con from 0.00664761 to 0.00664761
Heightened Def Con from 0.0066528 to 0.00665281
Heightened Def Con from 0.00665281 to 0.00665282
Heightened Def Con from 0.00666758 to 0.00666759
Heightened Def Con from 0.00667283 to 0.00667283
Heightened Def Con from 0.00667284 to 0.00667284
Heightened Def Con from 0.00668756 to 0.00668756
Heightened Def Con from 0.00669286 to 0.00669286
Heightened Def Con from 0.00669287 to 0.00669287
Heightened Def Con from 0.00670753 to 0.00670753
Heightened Def Con from 0.00671288 to 0.00671289
Heightened Def Con from 0.00671289 to 0.0067129
Heightened Def Con from 0.0067275 to 0.00672751
Heightened Def Con from 0.00673291 to 0.00673291
Heightened Def Con from 0.00673292 to 0.00673292
Heightened Def Con from 0.00674747 to 0.00674748
Heightened Def Con from 0.00675294 to 0.00675294
Heightened Def Con from 0.00675295 to 0.00675295
Heightened Def Con from 0.00676745 to 0.00676745
Heightened Def Con from 0.00677296 to 0.00677297
Heightened Def Con from 0.00677297 to 0.00677298
Heightened Def Con from 0.00678742 to 0.00678742
Heightened Def Con from 0.00679299 to 0.006793
Heightened Def Con from 0.006793 to 0.00679301
Heightened Def Con from 0.00680739 to 0.0068074
Heightened Def Con from 0.00681302 to 0.00681303
Heightened Def Con from 0.00681303 to 0.00681304
Heightened Def Con from 0.00682736 to 0.00682737
Heightened Def Con from 0.00683305 to 0.00683305
Heightened Def Con from 0.00683306 to 0.00683306
Heightened Def Con from 0.00684733 to 0.00684734
Heightened Def Con from 0.00685308 to 0.00685308
Heightened Def Con from 0.00685309 to 0.00685309
Heightened Def Con from 0.0068673 to 0.00686731
Heightened Def Con from 0.00687311 to 0.00687311
Heightened Def Con from 0.00687312 to 0.00687312
Heightened Def Con from 0.00688727 to 0.00688728
Heightened Def Con from 0.00689314 to 0.00689314
Heightened Def Con from 0.00689315 to 0.00689315
Heightened Def Con from 0.00690725 to 0.00690725
Heightened Def Con from 0.00691317 to 0.00691317
Heightened Def Con from 0.00691318 to 0.00691318
Heightened Def Con from 0.00692722 to 0.00692722
Heightened Def Con from 0.0069332 to 0.0069332
Heightened Def Con from 0.00693321 to 0.00693321
Heightened Def Con from 0.00694719 to 0.00694719
Heightened Def Con from 0.00695323 to 0.00695323
Heightened Def Con from 0.00695324 to 0.00695324
Heightened Def Con from 0.00696716 to 0.00696716
Heightened Def Con from 0.00697326 to 0.00697326
Heightened Def Con from 0.00697327 to 0.00697327
Heightened Def Con from 0.00698713 to 0.00698713
Heightened Def Con from 0.00699329 to 0.00699329
Heightened Def Con from 0.0069933 to 0.0069933
Heightened Def Con from 0.00700709 to 0.0070071
Heightened Def Con from 0.00701332 to 0.00701332
Heightened Def Con from 0.00701333 to 0.00701333
Heightened Def Con from 0.00702706 to 0.00702707
Heightened Def Con from 0.00703335 to 0.00703336
Heightened Def Con from 0.00703336 to 0.00703337
Heightened Def Con from 0.00704703 to 0.00704704
Heightened Def Con from 0.00705338 to 0.00705339
Heightened Def Con from 0.00705339 to 0.0070534
Heightened Def Con from 0.007067 to 0.007067
Heightened Def Con from 0.00707342 to 0.00707342
Heightened Def Con from 0.00707343 to 0.00707343
Heightened Def Con from 0.00708697 to 0.00708697
Heightened Def Con from 0.00709345 to 0.00709345
Heightened Def Con from 0.00709346 to 0.00709346
Heightened Def Con from 0.00710694 to 0.00710694
Heightened Def Con from 0.00711348 to 0.00711348
Heightened Def Con from 0.00711349 to 0.00711349
Heightened Def Con from 0.0071269 to 0.00712691
Heightened Def Con from 0.00713351 to 0.00713352
Heightened Def Con from 0.00713352 to 0.00713353
Heightened Def Con from 0.00714687 to 0.00714687
Heightened Def Con from 0.00715354 to 0.00715355
Heightened Def Con from 0.00715355 to 0.00715356
Heightened Def Con from 0.00716684 to 0.00716684
Heightened Def Con from 0.00717358 to 0.00717358
Heightened Def Con from 0.00717359 to 0.00717359
Heightened Def Con from 0.0071868 to 0.00718681
Heightened Def Con from 0.00719361 to 0.00719362
Heightened Def Con from 0.00719362 to 0.00719363
Heightened Def Con from 0.00720677 to 0.00720678
Heightened Def Con from 0.00721365 to 0.00721365
Heightened Def Con from 0.00721366 to 0.00721366
Heightened Def Con from 0.00722674 to 0.00722674
Heightened Def Con from 0.00723368 to 0.00723368
Heightened Def Con from 0.00723369 to 0.00723369
Heightened Def Con from 0.0072467 to 0.00724671
Heightened Def Con from 0.00725371 to 0.00725372
Heightened Def Con from 0.00725372 to 0.00725373
Heightened Def Con from 0.00726667 to 0.00726667
Heightened Def Con from 0.00727375 to 0.00727375
Heightened Def Con from 0.00727376 to 0.00727376
Heightened Def Con from 0.00728663 to 0.00728664
Heightened Def Con from 0.00729378 to 0.00729379
Heightened Def Con from 0.00729379 to 0.0072938
Heightened Def Con from 0.0073066 to 0.0073066
Heightened Def Con from 0.00731382 to 0.00731382
Heightened Def Con from 0.00731383 to 0.00731383
Heightened Def Con from 0.00732656 to 0.00732657
Heightened Def Con from 0.00733385 to 0.00733386
Heightened Def Con from 0.00733386 to 0.00733387
Heightened Def Con from 0.00734653 to 0.00734653
Heightened Def Con from 0.00735389 to 0.00735389
Heightened Def Con from 0.0073539 to 0.0073539
Heightened Def Con from 0.00736649 to 0.0073665
Heightened Def Con from 0.00737392 to 0.00737393
Heightened Def Con from 0.00737393 to 0.00737394
Heightened Def Con from 0.00738646 to 0.00738646
Heightened Def Con from 0.00739396 to 0.00739397
Heightened Def Con from 0.00739397 to 0.00739397
Heightened Def Con from 0.00740642 to 0.00740643
Heightened Def Con from 0.007414 to 0.007414
Heightened Def Con from 0.00741401 to 0.00741401
Heightened Def Con from 0.00742638 to 0.00742639
Heightened Def Con from 0.00743403 to 0.00743404
Heightened Def Con from 0.00743404 to 0.00743405
Heightened Def Con from 0.00744635 to 0.00744635
Heightened Def Con from 0.00745407 to 0.00745407
Heightened Def Con from 0.00745408 to 0.00745408
Heightened Def Con from 0.00746631 to 0.00746632
Heightened Def Con from 0.00747411 to 0.00747411
Heightened Def Con from 0.00747412 to 0.00747412
Heightened Def Con from 0.00748627 to 0.00748628
Heightened Def Con from 0.00749414 to 0.00749415
Heightened Def Con from 0.00749415 to 0.00749416
Heightened Def Con from 0.00750624 to 0.00750624
Heightened Def Con from 0.00751418 to 0.00751419
Heightened Def Con from 0.00751419 to 0.0075142
Heightened Def Con from 0.0075262 to 0.0075262
Heightened Def Con from 0.00753422 to 0.00753422
Heightened Def Con from 0.00753423 to 0.00753423
Heightened Def Con from 0.00754616 to 0.00754617
Heightened Def Con from 0.00755426 to 0.00755426
Heightened Def Con from 0.00755427 to 0.00755427
Heightened Def Con from 0.00756612 to 0.00756613
Heightened Def Con from 0.0075743 to 0.0075743
Heightened Def Con from 0.00757431 to 0.00757431
Heightened Def Con from 0.00758609 to 0.00758609
Heightened Def Con from 0.00759433 to 0.00759434
Heightened Def Con from 0.00759434 to 0.00759435
Heightened Def Con from 0.00760605 to 0.00760605
Heightened Def Con from 0.00761437 to 0.00761438
Heightened Def Con from 0.00761438 to 0.00761439
Heightened Def Con from 0.00762601 to 0.00762601
Heightened Def Con from 0.00763441 to 0.00763442
Heightened Def Con from 0.00763442 to 0.00763443
Heightened Def Con from 0.00764597 to 0.00764598
Heightened Def Con from 0.00765445 to 0.00765445
Heightened Def Con from 0.00765446 to 0.00765446
Heightened Def Con from 0.00766593 to 0.00766594
Heightened Def Con from 0.00767449 to 0.00767449
Heightened Def Con from 0.0076745 to 0.0076745
Heightened Def Con from 0.00768589 to 0.0076859
Heightened Def Con from 0.00769453 to 0.00769453
Heightened Def Con from 0.00769454 to 0.00769454
Heightened Def Con from 0.00770585 to 0.00770586
Heightened Def Con from 0.00771457 to 0.00771457
Heightened Def Con from 0.00771458 to 0.00771458
Heightened Def Con from 0.00772581 to 0.00772582
Heightened Def Con from 0.00773461 to 0.00773461
Heightened Def Con from 0.00773462 to 0.00773462
Heightened Def Con from 0.00774577 to 0.00774578
Heightened Def Con from 0.00775465 to 0.00775465
Heightened Def Con from 0.00775466 to 0.00775466
Heightened Def Con from 0.00776573 to 0.00776574
Heightened Def Con from 0.00777469 to 0.00777469
Heightened Def Con from 0.0077747 to 0.0077747
Heightened Def Con from 0.00778569 to 0.0077857
Heightened Def Con from 0.00779473 to 0.00779473
Heightened Def Con from 0.00779474 to 0.00779474
Heightened Def Con from 0.00780565 to 0.00780566
Heightened Def Con from 0.00781477 to 0.00781478
Heightened Def Con from 0.00781478 to 0.00781478
Heightened Def Con from 0.00782561 to 0.00782562
Heightened Def Con from 0.00783481 to 0.00783482
Heightened Def Con from 0.00783482 to 0.00783483
Heightened Def Con from 0.00784557 to 0.00784557
Heightened Def Con from 0.00785485 to 0.00785486
Heightened Def Con from 0.00785486 to 0.00785487
Heightened Def Con from 0.00786553 to 0.00786553
Heightened Def Con from 0.00787489 to 0.0078749
Heightened Def Con from 0.0078749 to 0.00787491
Heightened Def Con from 0.00788549 to 0.00788549
Heightened Def Con from 0.00789494 to 0.00789494
Heightened Def Con from 0.00789495 to 0.00789495
Heightened Def Con from 0.00790545 to 0.00790545
Heightened Def Con from 0.00791498 to 0.00791498
Heightened Def Con from 0.00791499 to 0.00791499
Heightened Def Con from 0.0079254 to 0.00792541
Heightened Def Con from 0.00793502 to 0.00793502
Heightened Def Con from 0.00793503 to 0.00793503
Heightened Def Con from 0.00794536 to 0.00794537
Heightened Def Con from 0.00795506 to 0.00795507
Heightened Def Con from 0.00795507 to 0.00795508
Heightened Def Con from 0.00796532 to 0.00796533
Heightened Def Con from 0.00797511 to 0.00797511
Heightened Def Con from 0.00797511 to 0.00797512
Heightened Def Con from 0.00798528 to 0.00798528
Heightened Def Con from 0.00799515 to 0.00799515
Heightened Def Con from 0.00799516 to 0.00799516
Heightened Def Con from 0.00800523 to 0.00800524
Heightened Def Con from 0.00801519 to 0.00801519
Heightened Def Con from 0.0080152 to 0.0080152
Heightened Def Con from 0.00802519 to 0.0080252
Heightened Def Con from 0.00803523 to 0.00803524
Heightened Def Con from 0.00803524 to 0.00803525
Heightened Def Con from 0.00804515 to 0.00804515
Heightened Def Con from 0.00805528 to 0.00805528
Heightened Def Con from 0.00805529 to 0.00805529
Heightened Def Con from 0.00806511 to 0.00806511
Heightened Def Con from 0.00807532 to 0.00807532
Heightened Def Con from 0.00807533 to 0.00807533
Heightened Def Con from 0.00808506 to 0.00808507
Heightened Def Con from 0.00809536 to 0.00809537
Heightened Def Con from 0.00809537 to 0.00809538
Heightened Def Con from 0.00810502 to 0.00810502
Heightened Def Con from 0.00811541 to 0.00811541
Heightened Def Con from 0.00811542 to 0.00811542
Heightened Def Con from 0.00812498 to 0.00812498
Heightened Def Con from 0.00813545 to 0.00813546
Heightened Def Con from 0.00813546 to 0.00813546
Heightened Def Con from 0.00814493 to 0.00814494
Heightened Def Con from 0.0081555 to 0.0081555
Heightened Def Con from 0.00815551 to 0.00815551
Heightened Def Con from 0.00816489 to 0.00816489
Heightened Def Con from 0.00817554 to 0.00817554
Heightened Def Con from 0.00817555 to 0.00817555
Heightened Def Con from 0.00818484 to 0.00818485
Heightened Def Con from 0.00819558 to 0.00819559
Heightened Def Con from 0.00819559 to 0.0081956
Heightened Def Con from 0.0082048 to 0.0082048
Heightened Def Con from 0.00821563 to 0.00821563
Heightened Def Con from 0.00821564 to 0.00821564
Heightened Def Con from 0.00822475 to 0.00822476
Heightened Def Con from 0.00823567 to 0.00823568
Heightened Def Con from 0.00823568 to 0.00823569
Heightened Def Con from 0.00824471 to 0.00824471
Heightened Def Con from 0.00825572 to 0.00825572
Heightened Def Con from 0.00825573 to 0.00825573
Heightened Def Con from 0.00826466 to 0.00826467
Heightened Def Con from 0.00827576 to 0.00827577
Heightened Def Con from 0.00827577 to 0.00827578
Heightened Def Con from 0.00828462 to 0.00828462
Heightened Def Con from 0.00829581 to 0.00829581
Heightened Def Con from 0.00829582 to 0.00829582
Heightened Def Con from 0.00830458 to 0.00830458
Heightened Def Con from 0.00831586 to 0.00831586
Heightened Def Con from 0.00831586 to 0.00831587
Heightened Def Con from 0.00832453 to 0.00832453
Heightened Def Con from 0.0083359 to 0.00833591
Heightened Def Con from 0.00833591 to 0.00833591
Heightened Def Con from 0.00834448 to 0.00834449
Heightened Def Con from 0.00835595 to 0.00835595
Heightened Def Con from 0.00835596 to 0.00835596
Heightened Def Con from 0.00836444 to 0.00836444
Heightened Def Con from 0.00837599 to 0.008376
Heightened Def Con from 0.008376 to 0.00837601
Heightened Def Con from 0.00838439 to 0.0083844
Heightened Def Con from 0.00839604 to 0.00839604
Heightened Def Con from 0.00839605 to 0.00839605
Heightened Def Con from 0.00840435 to 0.00840435
Heightened Def Con from 0.00841609 to 0.00841609
Heightened Def Con from 0.00841609 to 0.0084161
Heightened Def Con from 0.0084243 to 0.0084243
Heightened Def Con from 0.00843613 to 0.00843614
Heightened Def Con from 0.00843614 to 0.00843615
Heightened Def Con from 0.00844425 to 0.00844426
Heightened Def Con from 0.00845618 to 0.00845618
Heightened Def Con from 0.00845619 to 0.00845619
Heightened Def Con from 0.00846421 to 0.00846421
Heightened Def Con from 0.00847623 to 0.00847623
Heightened Def Con from 0.00847624 to 0.00847624
Heightened Def Con from 0.00848416 to 0.00848416
Heightened Def Con from 0.00849627 to 0.00849628
Heightened Def Con from 0.00849628 to 0.00849629
Heightened Def Con from 0.00850411 to 0.00850412
Heightened Def Con from 0.00851632 to 0.00851632
Heightened Def Con from 0.00851633 to 0.00851633
Heightened Def Con from 0.00852407 to 0.00852407
Heightened Def Con from 0.00853637 to 0.00853637
Heightened Def Con from 0.00853638 to 0.00853638
Heightened Def Con from 0.00854402 to 0.00854402
Heightened Def Con from 0.00855642 to 0.00855642
Heightened Def Con from 0.00855642 to 0.00855643
Heightened Def Con from 0.00856397 to 0.00856398
Heightened Def Con from 0.00857646 to 0.00857647
Heightened Def Con from 0.00857647 to 0.00857648
Heightened Def Con from 0.00858392 to 0.00858393
Heightened Def Con from 0.00859651 to 0.00859651
Heightened Def Con from 0.00859652 to 0.00859652
Heightened Def Con from 0.00860388 to 0.00860388
Heightened Def Con from 0.00861656 to 0.00861656
Heightened Def Con from 0.00861657 to 0.00861657
Heightened Def Con from 0.00862383 to 0.00862383
Heightened Def Con from 0.00863661 to 0.00863661
Heightened Def Con from 0.00863662 to 0.00863662
Heightened Def Con from 0.00864378 to 0.00864379
Heightened Def Con from 0.00865665 to 0.00865666
Heightened Def Con from 0.00865666 to 0.00865667
Heightened Def Con from 0.00866373 to 0.00866374
Heightened Def Con from 0.0086767 to 0.00867671
Heightened Def Con from 0.00867671 to 0.00867672
Heightened Def Con from 0.00868368 to 0.00868369
Heightened Def Con from 0.00869675 to 0.00869676
Heightened Def Con from 0.00869676 to 0.00869676
Heightened Def Con from 0.00870364 to 0.00870364
Heightened Def Con from 0.0087168 to 0.0087168
Heightened Def Con from 0.00871681 to 0.00871681
Heightened Def Con from 0.00872359 to 0.00872359
Heightened Def Con from 0.00873685 to 0.00873685
Heightened Def Con from 0.00873686 to 0.00873686
Heightened Def Con from 0.00874354 to 0.00874354
Heightened Def Con from 0.0087569 to 0.0087569
Heightened Def Con from 0.00875691 to 0.00875691
Heightened Def Con from 0.00876349 to 0.0087635
Heightened Def Con from 0.00877695 to 0.00877695
Heightened Def Con from 0.00877695 to 0.00877696
Heightened Def Con from 0.00878344 to 0.00878345
Heightened Def Con from 0.008797 to 0.008797
Heightened Def Con from 0.008797 to 0.00879701
Heightened Def Con from 0.00880339 to 0.0088034
Heightened Def Con from 0.00881704 to 0.00881705
Heightened Def Con from 0.00881705 to 0.00881706
Heightened Def Con from 0.00882334 to 0.00882335
Heightened Def Con from 0.00883709 to 0.0088371
Heightened Def Con from 0.0088371 to 0.00883711
Heightened Def Con from 0.00884329 to 0.0088433
Heightened Def Con from 0.00885714 to 0.00885715
Heightened Def Con from 0.00885715 to 0.00885716
Heightened Def Con from 0.00886325 to 0.00886325
Heightened Def Con from 0.00887719 to 0.0088772
Heightened Def Con from 0.0088772 to 0.00887721
Heightened Def Con from 0.0088832 to 0.0088832
Heightened Def Con from 0.00889724 to 0.00889725
Heightened Def Con from 0.00889725 to 0.00889726
Heightened Def Con from 0.00890315 to 0.00890315
Heightened Def Con from 0.00891729 to 0.0089173
Heightened Def Con from 0.0089173 to 0.00891731
Heightened Def Con from 0.0089231 to 0.0089231
Heightened Def Con from 0.00893734 to 0.00893735
Heightened Def Con from 0.00893735 to 0.00893736
Heightened Def Con from 0.00894305 to 0.00894305
Heightened Def Con from 0.00895739 to 0.0089574
Heightened Def Con from 0.0089574 to 0.00895741
Heightened Def Con from 0.008963 to 0.008963
Heightened Def Con from 0.00897744 to 0.00897745
Heightened Def Con from 0.00897745 to 0.00897746
Heightened Def Con from 0.00898295 to 0.00898295
Heightened Def Con from 0.00899749 to 0.0089975
Heightened Def Con from 0.0089975 to 0.00899751
Heightened Def Con from 0.0090029 to 0.0090029
Heightened Def Con from 0.00901754 to 0.00901755
Heightened Def Con from 0.00901755 to 0.00901756
Heightened Def Con from 0.00902285 to 0.00902285
Heightened Def Con from 0.00903759 to 0.0090376
Heightened Def Con from 0.0090376 to 0.00903761
Heightened Def Con from 0.0090428 to 0.0090428
Heightened Def Con from 0.00905764 to 0.00905765
Heightened Def Con from 0.00905765 to 0.00905766
Heightened Def Con from 0.00906275 to 0.00906275
Heightened Def Con from 0.0090777 to 0.0090777
Heightened Def Con from 0.0090777 to 0.00907771
Heightened Def Con from 0.0090827 to 0.0090827
Heightened Def Con from 0.00909775 to 0.00909775
Heightened Def Con from 0.00909775 to 0.00909776
Heightened Def Con from 0.00910265 to 0.00910265
Heightened Def Con from 0.0091178 to 0.0091178
Heightened Def Con from 0.00911781 to 0.00911781
Heightened Def Con from 0.0091226 to 0.0091226
Heightened Def Con from 0.00913785 to 0.00913785
Heightened Def Con from 0.00913786 to 0.00913786
Heightened Def Con from 0.00914254 to 0.00914255
Heightened Def Con from 0.0091579 to 0.0091579
Heightened Def Con from 0.00915791 to 0.00915791
Heightened Def Con from 0.00916249 to 0.0091625
Heightened Def Con from 0.00917795 to 0.00917795
Heightened Def Con from 0.00917796 to 0.00917796
Heightened Def Con from 0.00918244 to 0.00918245
Heightened Def Con from 0.009198 to 0.00919801
Heightened Def Con from 0.00919801 to 0.00919801
Heightened Def Con from 0.00920239 to 0.0092024
Heightened Def Con from 0.00921805 to 0.00921806
Heightened Def Con from 0.00921806 to 0.00921807
Heightened Def Con from 0.00922234 to 0.00922235
Heightened Def Con from 0.0092381 to 0.00923811
Heightened Def Con from 0.00923811 to 0.00923812
Heightened Def Con from 0.00924229 to 0.00924229
Heightened Def Con from 0.00925816 to 0.00925816
Heightened Def Con from 0.00925816 to 0.00925817
Heightened Def Con from 0.00926224 to 0.00926224
Heightened Def Con from 0.00927821 to 0.00927821
Heightened Def Con from 0.00927822 to 0.00927822
Heightened Def Con from 0.00928219 to 0.00928219
Heightened Def Con from 0.00929826 to 0.00929826
Heightened Def Con from 0.00929827 to 0.00929827
Heightened Def Con from 0.00930214 to 0.00930214
Heightened Def Con from 0.00931831 to 0.00931831
Heightened Def Con from 0.00931832 to 0.00931832
Heightened Def Con from 0.00932208 to 0.00932209
Heightened Def Con from 0.00933836 to 0.00933837
Heightened Def Con from 0.00933837 to 0.00933837
Heightened Def Con from 0.00934203 to 0.00934204
Heightened Def Con from 0.00935841 to 0.00935842
Heightened Def Con from 0.00935842 to 0.00935843
Heightened Def Con from 0.00936198 to 0.00936199
Heightened Def Con from 0.00937847 to 0.00937847
Heightened Def Con from 0.00937847 to 0.00937848
Heightened Def Con from 0.00938193 to 0.00938193
Heightened Def Con from 0.00939852 to 0.00939852
Heightened Def Con from 0.00939853 to 0.00939853
Heightened Def Con from 0.00940188 to 0.00940188
Heightened Def Con from 0.00941857 to 0.00941857
Heightened Def Con from 0.00941858 to 0.00941858
Heightened Def Con from 0.00942183 to 0.00942183
Heightened Def Con from 0.00943862 to 0.00943863
Heightened Def Con from 0.00943863 to 0.00943863
Heightened Def Con from 0.00944177 to 0.00944178
Heightened Def Con from 0.00945867 to 0.00945868
Heightened Def Con from 0.00945868 to 0.00945869
Heightened Def Con from 0.00946172 to 0.00946173
Heightened Def Con from 0.00947873 to 0.00947873
Heightened Def Con from 0.00947873 to 0.00947874
Heightened Def Con from 0.00948167 to 0.00948167
Heightened Def Con from 0.00949878 to 0.00949878
Heightened Def Con from 0.00949879 to 0.00949879
Heightened Def Con from 0.00950162 to 0.00950162
Heightened Def Con from 0.00951883 to 0.00951883
Heightened Def Con from 0.00951884 to 0.00951884
Heightened Def Con from 0.00952157 to 0.00952157
Heightened Def Con from 0.00953888 to 0.00953889
Heightened Def Con from 0.00953889 to 0.0095389
Heightened Def Con from 0.00954151 to 0.00954152
Heightened Def Con from 0.00955894 to 0.00955894
Heightened Def Con from 0.00955894 to 0.00955895
Heightened Def Con from 0.00956146 to 0.00956147
Heightened Def Con from 0.00957899 to 0.00957899
Heightened Def Con from 0.009579 to 0.009579
Heightened Def Con from 0.00958141 to 0.00958142
Heightened Def Con from 0.00959904 to 0.00959904
Heightened Def Con from 0.00959905 to 0.00959905
Heightened Def Con from 0.00960136 to 0.00960136
Heightened Def Con from 0.00961909 to 0.0096191
Heightened Def Con from 0.0096191 to 0.00961911
Heightened Def Con from 0.00962131 to 0.00962131
Heightened Def Con from 0.00963914 to 0.00963915
Heightened Def Con from 0.00963915 to 0.00963916
Heightened Def Con from 0.00964125 to 0.00964126
Heightened Def Con from 0.0096592 to 0.0096592
Heightened Def Con from 0.00965921 to 0.00965921
Heightened Def Con from 0.0096612 to 0.00966121
Heightened Def Con from 0.00967925 to 0.00967925
Heightened Def Con from 0.00967926 to 0.00967926
Heightened Def Con from 0.00968115 to 0.00968115
Heightened Def Con from 0.0096993 to 0.00969931
Heightened Def Con from 0.00969931 to 0.00969931
Heightened Def Con from 0.0097011 to 0.0097011
Heightened Def Con from 0.00971936 to 0.00971936
Heightened Def Con from 0.00971936 to 0.00971937
Heightened Def Con from 0.00972104 to 0.00972105
Heightened Def Con from 0.00973941 to 0.00973941
Heightened Def Con from 0.00973942 to 0.00973942
Heightened Def Con from 0.00974099 to 0.009741
Heightened Def Con from 0.00975946 to 0.00975947
Heightened Def Con from 0.00975947 to 0.00975947
Heightened Def Con from 0.00976094 to 0.00976095
Heightened Def Con from 0.00977951 to 0.00977952
Heightened Def Con from 0.00977952 to 0.00977953
Heightened Def Con from 0.00978089 to 0.00978091
Heightened Def Con from 0.00979957 to 0.00979957
Heightened Def Con from 0.00979958 to 0.00979958
Heightened Def Con from 0.00981962 to 0.00981962
Heightened Def Con from 0.00981963 to 0.00981963
Heightened Def Con from 0.00983967 to 0.00983968
Heightened Def Con from 0.00983968 to 0.00983968
Heightened Def Con from 0.00985973 to 0.00985973
Heightened Def Con from 0.00985973 to 0.00985974
Heightened Def Con from 0.00987978 to 0.00987978
Heightened Def Con from 0.00987979 to 0.00987979
Heightened Def Con from 0.00989983 to 0.00989983
Heightened Def Con from 0.00989984 to 0.00989984
Heightened Def Con from 0.00991988 to 0.00991989
Heightened Def Con from 0.00991989 to 0.0099199
Heightened Def Con from 0.00993994 to 0.00993994
Heightened Def Con from 0.00993994 to 0.00993995
Heightened Def Con from 0.00994047 to 0.00994048
Heightened Def Con from 0.01 to 0.01
Heightened Def Con from 0.0100001 to 0.0100001
Heightened Def Con from 0.0100001 to 0.0100001
Heightened Def Con from 0.01003 to 0.01003
Heightened Def Con from 0.01003 to 0.01003
Heightened Def Con from 0.0100301 to 0.0100301
Heightened Def Con from 0.0100303 to 0.0100303
Heightened Def Con from 0.0100303 to 0.0100303
Heightened Def Con from 0.0100304 to 0.0100304
Heightened Def Con from 0.01005 to 0.01005
Heightened Def Con from 0.01005 to 0.01005
Heightened Def Con from 0.0100502 to 0.0100503
Heightened Def Con from 0.0100699 to 0.0100699
Heightened Def Con from 0.0100699 to 0.0100699
Heightened Def Con from 0.0100703 to 0.0100703
Heightened Def Con from 0.0100899 to 0.0100899
Heightened Def Con from 0.0100899 to 0.0100899
Heightened Def Con from 0.0101098 to 0.0101098
Heightened Def Con from 0.0101098 to 0.0101098
Heightened Def Con from 0.0101298 to 0.0101298
Heightened Def Con from 0.0101298 to 0.0101298
Heightened Def Con from 0.0101497 to 0.0101497
Heightened Def Con from 0.0101497 to 0.0101497
Heightened Def Con from 0.0101696 to 0.0101697
Heightened Def Con from 0.0101697 to 0.0101697
Heightened Def Con from 0.0101896 to 0.0101896
Heightened Def Con from 0.0101896 to 0.0101896
Heightened Def Con from 0.0102095 to 0.0102095
Heightened Def Con from 0.0102096 to 0.0102096
Heightened Def Con from 0.0102109 to 0.0102109
Heightened Def Con from 0.0102295 to 0.0102295
Heightened Def Con from 0.0102295 to 0.0102295
Heightened Def Con from 0.0102309 to 0.0102309
Heightened Def Con from 0.0102494 to 0.0102494
Heightened Def Con from 0.0102494 to 0.0102495
Heightened Def Con from 0.010251 to 0.010251
Heightened Def Con from 0.0102694 to 0.0102694
Heightened Def Con from 0.0102694 to 0.0102694
Heightened Def Con from 0.010271 to 0.010271
Heightened Def Con from 0.0102893 to 0.0102893
Heightened Def Con from 0.0102893 to 0.0102893
Heightened Def Con from 0.0102911 to 0.0102911
Heightened Def Con from 0.0103093 to 0.0103093
Heightened Def Con from 0.0103093 to 0.0103093
Heightened Def Con from 0.0103111 to 0.0103111
Heightened Def Con from 0.0103292 to 0.0103292
Heightened Def Con from 0.0103292 to 0.0103292
Heightened Def Con from 0.0103312 to 0.0103312
Heightened Def Con from 0.0103492 to 0.0103492
Heightened Def Con from 0.0103492 to 0.0103492
Heightened Def Con from 0.0103512 to 0.0103512
Heightened Def Con from 0.0103691 to 0.0103691
Heightened Def Con from 0.0103691 to 0.0103691
Heightened Def Con from 0.0103713 to 0.0103713
Heightened Def Con from 0.0103891 to 0.0103891
Heightened Def Con from 0.0103891 to 0.0103891
Heightened Def Con from 0.0103913 to 0.0103913
Heightened Def Con from 0.010409 to 0.010409
Heightened Def Con from 0.010409 to 0.010409
Heightened Def Con from 0.0104114 to 0.0104114
Heightened Def Con from 0.010429 to 0.010429
Heightened Def Con from 0.010429 to 0.010429
Heightened Def Con from 0.0104314 to 0.0104314
Heightened Def Con from 0.0104489 to 0.0104489
Heightened Def Con from 0.0104489 to 0.0104489
Heightened Def Con from 0.0104515 to 0.0104515
Heightened Def Con from 0.0104689 to 0.0104689
Heightened Def Con from 0.0104715 to 0.0104716
Heightened Def Con from 0.0104888 to 0.0104888
Heightened Def Con from 0.0104888 to 0.0104888
Heightened Def Con from 0.0104916 to 0.0104916
Heightened Def Con from 0.0105088 to 0.0105088
Heightened Def Con from 0.0105088 to 0.0105088
Heightened Def Con from 0.0105117 to 0.0105117
Heightened Def Con from 0.0105287 to 0.0105287
Heightened Def Con from 0.0105287 to 0.0105287
Heightened Def Con from 0.0105317 to 0.0105317
Heightened Def Con from 0.0105487 to 0.0105487
Heightened Def Con from 0.0105487 to 0.0105487
Heightened Def Con from 0.0105518 to 0.0105518
Heightened Def Con from 0.0105686 to 0.0105686
Heightened Def Con from 0.0105686 to 0.0105686
Heightened Def Con from 0.0105718 to 0.0105718
Heightened Def Con from 0.0105886 to 0.0105886
Heightened Def Con from 0.0105886 to 0.0105886
Heightened Def Con from 0.0105919 to 0.0105919
Heightened Def Con from 0.0106085 to 0.0106085
Heightened Def Con from 0.0106085 to 0.0106085
Heightened Def Con from 0.0106085 to 0.0106085
Heightened Def Con from 0.0106119 to 0.0106119
Heightened Def Con from 0.0106284 to 0.0106285
Heightened Def Con from 0.0106285 to 0.0106285
Heightened Def Con from 0.010632 to 0.010632
Heightened Def Con from 0.0106484 to 0.0106484
Heightened Def Con from 0.0106484 to 0.0106484
Heightened Def Con from 0.010652 to 0.010652
Heightened Def Con from 0.0106683 to 0.0106683
Heightened Def Con from 0.0106684 to 0.0106684
Heightened Def Con from 0.0106721 to 0.0106721
Heightened Def Con from 0.0106883 to 0.0106883
Heightened Def Con from 0.0106883 to 0.0106883
Heightened Def Con from 0.0106921 to 0.0106921
Heightened Def Con from 0.0107082 to 0.0107082
Heightened Def Con from 0.0107083 to 0.0107083
Heightened Def Con from 0.0107122 to 0.0107122
Heightened Def Con from 0.0107282 to 0.0107282
Heightened Def Con from 0.0107282 to 0.0107282
Heightened Def Con from 0.0107322 to 0.0107322
Heightened Def Con from 0.0107481 to 0.0107481
Heightened Def Con from 0.0107481 to 0.0107482
Heightened Def Con from 0.0107523 to 0.0107523
Heightened Def Con from 0.0107681 to 0.0107681
Heightened Def Con from 0.0107681 to 0.0107681
Heightened Def Con from 0.0107723 to 0.0107723
Heightened Def Con from 0.010788 to 0.010788
Heightened Def Con from 0.010788 to 0.010788
Heightened Def Con from 0.0107924 to 0.0107924
Heightened Def Con from 0.010808 to 0.010808
Heightened Def Con from 0.010808 to 0.010808
Heightened Def Con from 0.0108124 to 0.0108124
Heightened Def Con from 0.0108279 to 0.0108279
Heightened Def Con from 0.0108279 to 0.0108279
Heightened Def Con from 0.0108325 to 0.0108325
Heightened Def Con from 0.0108479 to 0.0108479
Heightened Def Con from 0.0108479 to 0.0108479
Heightened Def Con from 0.0108525 to 0.0108525
Heightened Def Con from 0.0108678 to 0.0108678
Heightened Def Con from 0.0108678 to 0.0108678
Heightened Def Con from 0.0108726 to 0.0108726
Heightened Def Con from 0.0108878 to 0.0108878
Heightened Def Con from 0.0108878 to 0.0108878
Heightened Def Con from 0.0108878 to 0.0108878
Heightened Def Con from 0.0108926 to 0.0108926
Heightened Def Con from 0.0109077 to 0.0109077
Heightened Def Con from 0.0109077 to 0.0109077
Heightened Def Con from 0.0109127 to 0.0109127
Heightened Def Con from 0.0109277 to 0.0109277
Heightened Def Con from 0.0109277 to 0.0109277
Heightened Def Con from 0.0109327 to 0.0109327
Heightened Def Con from 0.0109476 to 0.0109476
Heightened Def Con from 0.0109476 to 0.0109476
Heightened Def Con from 0.0109528 to 0.0109528
[...]
Heightened Def Con from 0.0181856 to 0.0181856
Heightened Def Con from 0.0181856 to 0.0181856
Heightened Def Con from 0.0181948 to 0.0181948
Heightened Def Con from 0.0182056 to 0.0182056
Heightened Def Con from 0.0182056 to 0.0182056
Heightened Def Con from 0.0182148 to 0.0182148
Heightened Def Con from 0.0182257 to 0.0182257
Heightened Def Con from 0.0182257 to 0.0182257
Heightened Def Con from 0.0182347 to 0.0182347
Heightened Def Con from 0.0182457 to 0.0182457
Heightened Def Con from 0.0182457 to 0.0182457
Heightened Def Con from 0.0182547 to 0.0182547
Heightened Def Con from 0.0182657 to 0.0182657
Heightened Def Con from 0.0182658 to 0.0182658
Heightened Def Con from 0.0182746 to 0.0182746
Heightened Def Con from 0.0182858 to 0.0182858
Heightened Def Con from 0.0182858 to 0.0182858
Heightened Def Con from 0.0182946 to 0.0182946
Heightened Def Con from 0.0183058 to 0.0183058
Heightened Def Con from 0.0183058 to 0.0183058
Heightened Def Con from 0.0183146 to 0.0183146
Heightened Def Con from 0.0183259 to 0.0183259
Heightened Def Con from 0.0183259 to 0.0183259
Heightened Def Con from 0.0183345 to 0.0183345
Heightened Def Con from 0.0183345 to 0.0183345
Heightened Def Con from 0.0183459 to 0.0183459
Heightened Def Con from 0.0183459 to 0.0183459
Heightened Def Con from 0.0183545 to 0.0183545
Heightened Def Con from 0.018366 to 0.018366
Heightened Def Con from 0.018366 to 0.018366
Heightened Def Con from 0.0183744 to 0.0183744
Heightened Def Con from 0.018386 to 0.018386
Heightened Def Con from 0.018386 to 0.018386
Heightened Def Con from 0.0183944 to 0.0183944
Heightened Def Con from 0.0184061 to 0.0184061
Heightened Def Con from 0.0184061 to 0.0184061
Heightened Def Con from 0.0184061 to 0.0184061
Heightened Def Con from 0.0184143 to 0.0184143
Heightened Def Con from 0.0184261 to 0.0184261
Heightened Def Con from 0.0184261 to 0.0184261
Heightened Def Con from 0.0184343 to 0.0184343
Heightened Def Con from 0.0184462 to 0.0184462
Heightened Def Con from 0.0184462 to 0.0184462
Heightened Def Con from 0.0184542 to 0.0184542
Heightened Def Con from 0.0184662 to 0.0184662
Heightened Def Con from 0.0184662 to 0.0184662
Heightened Def Con from 0.0184742 to 0.0184742
Heightened Def Con from 0.0184862 to 0.0184863
Heightened Def Con from 0.0184863 to 0.0184863
Heightened Def Con from 0.0184941 to 0.0184941
Heightened Def Con from 0.0185063 to 0.0185063
Heightened Def Con from 0.0185063 to 0.0185063
Heightened Def Con from 0.0185141 to 0.0185141
Heightened Def Con from 0.0185263 to 0.0185263
Heightened Def Con from 0.0185264 to 0.0185264
Heightened Def Con from 0.018534 to 0.018534
Heightened Def Con from 0.0185464 to 0.0185464
Heightened Def Con from 0.0185464 to 0.0185464
Heightened Def Con from 0.018554 to 0.018554
Heightened Def Con from 0.0185664 to 0.0185664
Heightened Def Con from 0.0185664 to 0.0185665
Heightened Def Con from 0.0185739 to 0.018574
Heightened Def Con from 0.0185865 to 0.0185865
Heightened Def Con from 0.0185865 to 0.0185865
Heightened Def Con from 0.0185939 to 0.0185939
Heightened Def Con from 0.0186065 to 0.0186065
Heightened Def Con from 0.0186065 to 0.0186065
Heightened Def Con from 0.0186139 to 0.0186139
Heightened Def Con from 0.0186266 to 0.0186266
Heightened Def Con from 0.0186266 to 0.0186266
Heightened Def Con from 0.0186338 to 0.0186338
Heightened Def Con from 0.0186466 to 0.0186466
Heightened Def Con from 0.0186538 to 0.0186538
Heightened Def Con from 0.0186667 to 0.0186667
Heightened Def Con from 0.0186667 to 0.0186667
Heightened Def Con from 0.0186737 to 0.0186737
Heightened Def Con from 0.0186867 to 0.0186867
Heightened Def Con from 0.0186867 to 0.0186867
Heightened Def Con from 0.0186937 to 0.0186937
Heightened Def Con from 0.0186937 to 0.0186937
Heightened Def Con from 0.0187068 to 0.0187068
Heightened Def Con from 0.0187068 to 0.0187068
Heightened Def Con from 0.0187136 to 0.0187136
Heightened Def Con from 0.0187268 to 0.0187268
Heightened Def Con from 0.0187268 to 0.0187268
Heightened Def Con from 0.0187336 to 0.0187336
Heightened Def Con from 0.0187469 to 0.0187469
Heightened Def Con from 0.0187469 to 0.0187469
Heightened Def Con from 0.0187535 to 0.0187535
Heightened Def Con from 0.0187669 to 0.0187669
Heightened Def Con from 0.0187669 to 0.0187669
Heightened Def Con from 0.0187735 to 0.0187735
Heightened Def Con from 0.018787 to 0.018787
Heightened Def Con from 0.018787 to 0.018787
Heightened Def Con from 0.0187934 to 0.0187934
Heightened Def Con from 0.018807 to 0.018807
Heightened Def Con from 0.018807 to 0.018807
Heightened Def Con from 0.0188134 to 0.0188134
Heightened Def Con from 0.0188271 to 0.0188271
Heightened Def Con from 0.0188271 to 0.0188271
Heightened Def Con from 0.0188333 to 0.0188333
Heightened Def Con from 0.0188471 to 0.0188471
Heightened Def Con from 0.0188471 to 0.0188471
Heightened Def Con from 0.0188533 to 0.0188533
Heightened Def Con from 0.0188672 to 0.0188672
Heightened Def Con from 0.0188672 to 0.0188672
Heightened Def Con from 0.0188732 to 0.0188732
Heightened Def Con from 0.0188872 to 0.0188872
Heightened Def Con from 0.0188872 to 0.0188872
Heightened Def Con from 0.0188932 to 0.0188932
Heightened Def Con from 0.0189073 to 0.0189073
Heightened Def Con from 0.0189073 to 0.0189073
Heightened Def Con from 0.0189131 to 0.0189131
Heightened Def Con from 0.0189273 to 0.0189273
Heightened Def Con from 0.0189273 to 0.0189273
Heightened Def Con from 0.0189331 to 0.0189331
Heightened Def Con from 0.0189474 to 0.0189474
Heightened Def Con from 0.0189474 to 0.0189474
Heightened Def Con from 0.018953 to 0.018953
Heightened Def Con from 0.0189674 to 0.0189674
Heightened Def Con from 0.0189674 to 0.0189674
Heightened Def Con from 0.018973 to 0.018973
Heightened Def Con from 0.0189875 to 0.0189875
Heightened Def Con from 0.0189875 to 0.0189875
Heightened Def Con from 0.0189929 to 0.0189929
Heightened Def Con from 0.0190075 to 0.0190075
Heightened Def Con from 0.0190075 to 0.0190075
Heightened Def Con from 0.0190129 to 0.0190129
Heightened Def Con from 0.0190276 to 0.0190276
Heightened Def Con from 0.0190276 to 0.0190276
Heightened Def Con from 0.0190328 to 0.0190328
Heightened Def Con from 0.0190476 to 0.0190476
Heightened Def Con from 0.0190476 to 0.0190476
Heightened Def Con from 0.0190476 to 0.0190476
Heightened Def Con from 0.0190528 to 0.0190528
Heightened Def Con from 0.0190677 to 0.0190677
Heightened Def Con from 0.0190677 to 0.0190677
Heightened Def Con from 0.0190727 to 0.0190727
Heightened Def Con from 0.0190877 to 0.0190877
Heightened Def Con from 0.0190877 to 0.0190877
Heightened Def Con from 0.0190927 to 0.0190927
Heightened Def Con from 0.0191078 to 0.0191078
Heightened Def Con from 0.0191078 to 0.0191078
Heightened Def Con from 0.0191126 to 0.0191126
Heightened Def Con from 0.0191278 to 0.0191278
Heightened Def Con from 0.0191278 to 0.0191278
Heightened Def Con from 0.0191326 to 0.0191326
Heightened Def Con from 0.0191479 to 0.0191479
Heightened Def Con from 0.0191479 to 0.0191479
Heightened Def Con from 0.0191525 to 0.0191525
Heightened Def Con from 0.0191679 to 0.0191679
Heightened Def Con from 0.0191679 to 0.0191679
Heightened Def Con from 0.0191725 to 0.0191725
Heightened Def Con from 0.019188 to 0.019188
Heightened Def Con from 0.019188 to 0.019188
Heightened Def Con from 0.0191924 to 0.0191924
Heightened Def Con from 0.019208 to 0.019208
Heightened Def Con from 0.019208 to 0.019208
Heightened Def Con from 0.0192124 to 0.0192124
Heightened Def Con from 0.0192281 to 0.0192281
Heightened Def Con from 0.0192281 to 0.0192281
Heightened Def Con from 0.0192323 to 0.0192323
Heightened Def Con from 0.0192481 to 0.0192481
Heightened Def Con from 0.0192481 to 0.0192481
Heightened Def Con from 0.0192523 to 0.0192523
Heightened Def Con from 0.0192682 to 0.0192682
Heightened Def Con from 0.0192682 to 0.0192682
Heightened Def Con from 0.0192722 to 0.0192722
Heightened Def Con from 0.0192882 to 0.0192882
Heightened Def Con from 0.0192882 to 0.0192882
Heightened Def Con from 0.0192922 to 0.0192922
Heightened Def Con from 0.0193083 to 0.0193083
Heightened Def Con from 0.0193083 to 0.0193083
Heightened Def Con from 0.0193121 to 0.0193121
Heightened Def Con from 0.0193121 to 0.0193121
Heightened Def Con from 0.0193283 to 0.0193283
Heightened Def Con from 0.0193283 to 0.0193283
Heightened Def Con from 0.0193321 to 0.0193321
Heightened Def Con from 0.0193484 to 0.0193484
Heightened Def Con from 0.0193484 to 0.0193484
Heightened Def Con from 0.019352 to 0.019352
Heightened Def Con from 0.0193684 to 0.0193684
Heightened Def Con from 0.0193684 to 0.0193685
Heightened Def Con from 0.019372 to 0.019372
Heightened Def Con from 0.0193885 to 0.0193885
Heightened Def Con from 0.0193885 to 0.0193885
Heightened Def Con from 0.0193919 to 0.0193919
Heightened Def Con from 0.0194085 to 0.0194085
Heightened Def Con from 0.0194086 to 0.0194086
Heightened Def Con from 0.0194119 to 0.0194119
Heightened Def Con from 0.0194286 to 0.0194286
Heightened Def Con from 0.0194286 to 0.0194286
Heightened Def Con from 0.0194318 to 0.0194318
Heightened Def Con from 0.0194486 to 0.0194487
Heightened Def Con from 0.0194487 to 0.0194487
Heightened Def Con from 0.0194517 to 0.0194518
Heightened Def Con from 0.0194687 to 0.0194687
Heightened Def Con from 0.0194687 to 0.0194687
Heightened Def Con from 0.0194717 to 0.0194717
Heightened Def Con from 0.0194888 to 0.0194888
Heightened Def Con from 0.0194888 to 0.0194888
Heightened Def Con from 0.0194916 to 0.0194917
Heightened Def Con from 0.0195088 to 0.0195088
Heightened Def Con from 0.0195088 to 0.0195088
Heightened Def Con from 0.0195116 to 0.0195116
Heightened Def Con from 0.0195289 to 0.0195289
Heightened Def Con from 0.0195289 to 0.0195289
Heightened Def Con from 0.0195315 to 0.0195315
Heightened Def Con from 0.0195489 to 0.0195489
Heightened Def Con from 0.0195489 to 0.0195489
Heightened Def Con from 0.0195515 to 0.0195515
Heightened Def Con from 0.019569 to 0.019569
Heightened Def Con from 0.019569 to 0.019569
Heightened Def Con from 0.0195714 to 0.0195714
Heightened Def Con from 0.019589 to 0.019589
Heightened Def Con from 0.019589 to 0.019589
Heightened Def Con from 0.0195914 to 0.0195914
Heightened Def Con from 0.0196091 to 0.0196091
Heightened Def Con from 0.0196091 to 0.0196091
Heightened Def Con from 0.0196113 to 0.0196113
Heightened Def Con from 0.0196291 to 0.0196291
Heightened Def Con from 0.0196291 to 0.0196291
Heightened Def Con from 0.0196313 to 0.0196313
Heightened Def Con from 0.0196492 to 0.0196492
Heightened Def Con from 0.0196492 to 0.0196492
Heightened Def Con from 0.0196512 to 0.0196512
Heightened Def Con from 0.0196692 to 0.0196692
Heightened Def Con from 0.0196692 to 0.0196692
Heightened Def Con from 0.0196712 to 0.0196712
Heightened Def Con from 0.0196893 to 0.0196893
Heightened Def Con from 0.0196893 to 0.0196893
Heightened Def Con from 0.0196911 to 0.0196911
Heightened Def Con from 0.0197093 to 0.0197093
Heightened Def Con from 0.0197093 to 0.0197093
Heightened Def Con from 0.0197093 to 0.0197093
Heightened Def Con from 0.0197111 to 0.0197111
Heightened Def Con from 0.0197294 to 0.0197294
Heightened Def Con from 0.0197294 to 0.0197294
Heightened Def Con from 0.0197294 to 0.0197294
Heightened Def Con from 0.019731 to 0.019731
Heightened Def Con from 0.0197494 to 0.0197494
Heightened Def Con from 0.0197494 to 0.0197494
Heightened Def Con from 0.019751 to 0.019751
Heightened Def Con from 0.0197695 to 0.0197695
Heightened Def Con from 0.0197695 to 0.0197695
Heightened Def Con from 0.0197709 to 0.0197709
Heightened Def Con from 0.0197895 to 0.0197895
Heightened Def Con from 0.0197895 to 0.0197896
Heightened Def Con from 0.0198096 to 0.0198096
Heightened Def Con from 0.0198096 to 0.0198096
Heightened Def Con from 0.0198296 to 0.0198297
Heightened Def Con from 0.0198297 to 0.0198297
Heightened Def Con from 0.0198497 to 0.0198497
Heightened Def Con from 0.0198497 to 0.0198497
Heightened Def Con from 0.0198698 to 0.0198698
Heightened Def Con from 0.0198698 to 0.0198698
Heightened Def Con from 0.0198898 to 0.0198898
Heightened Def Con from 0.0198898 to 0.0198898
Heightened Def Con from 0.0199099 to 0.0199099
Heightened Def Con from 0.0199099 to 0.0199099
Heightened Def Con from 0.0199299 to 0.0199299
Heightened Def Con from 0.0199299 to 0.0199299
Heightened Def Con from 0.01995 to 0.01995
Heightened Def Con from 0.01995 to 0.01995
Heightened Def Con from 0.0199501 to 0.0199501
Heightened Def Con from 0.0199501 to 0.0199502
Heightened Def Con from 0.0199502 to 0.0199502
Heightened Def Con from 0.0199502 to 0.0199502
Heightened Def Con from 0.0199504 to 0.0199504
Heightened Def Con from 0.0199504 to 0.0199505
Heightened Def Con from 0.0200001 to 0.0200001
Heightened Def Con from 0.0200001 to 0.0200001
Heightened Def Con from 0.02002 to 0.02002
Heightened Def Con from 0.0200201 to 0.0200201
Heightened Def Con from 0.0200201 to 0.0200201
Heightened Def Con from 0.0200203 to 0.0200203
Heightened Def Con from 0.0200203 to 0.0200204
Heightened Def Con from 0.0200204 to 0.0200204
Heightened Def Con from 0.02004 to 0.02004
Heightened Def Con from 0.02004 to 0.02004
Heightened Def Con from 0.0200401 to 0.0200401
Heightened Def Con from 0.0200403 to 0.0200403
Heightened Def Con from 0.0200403 to 0.0200403
Heightened Def Con from 0.0200404 to 0.0200404
Heightened Def Con from 0.0200599 to 0.02006
Heightened Def Con from 0.0200799 to 0.0200799
Heightened Def Con from 0.0200998 to 0.0200998
Heightened Def Con from 0.0200998 to 0.0200998
Heightened Def Con from 0.0201198 to 0.0201198
Heightened Def Con from 0.0201198 to 0.0201198
Heightened Def Con from 0.0201397 to 0.0201397
Heightened Def Con from 0.0201397 to 0.0201397
Heightened Def Con from 0.0201597 to 0.0201597
Heightened Def Con from 0.0201597 to 0.0201597
Heightened Def Con from 0.0201796 to 0.0201796
Heightened Def Con from 0.0201796 to 0.0201796
Heightened Def Con from 0.0201996 to 0.0201996
Heightened Def Con from 0.0201996 to 0.0201996
Heightened Def Con from 0.0202195 to 0.0202195
Heightened Def Con from 0.0202195 to 0.0202195
Heightened Def Con from 0.0202209 to 0.0202209
Heightened Def Con from 0.0202395 to 0.0202395
Heightened Def Con from 0.0202395 to 0.0202395
Heightened Def Con from 0.0202409 to 0.0202409
Heightened Def Con from 0.0202594 to 0.0202594
Heightened Def Con from 0.0202594 to 0.0202594
Heightened Def Con from 0.020261 to 0.020261
Heightened Def Con from 0.0202794 to 0.0202794
Heightened Def Con from 0.0202794 to 0.0202794
Heightened Def Con from 0.020281 to 0.0202811
Heightened Def Con from 0.0202993 to 0.0202993
Heightened Def Con from 0.0202993 to 0.0202993
Heightened Def Con from 0.0203011 to 0.0203011
Heightened Def Con from 0.0203193 to 0.0203193
Heightened Def Con from 0.0203193 to 0.0203193
Heightened Def Con from 0.0203212 to 0.0203212
Heightened Def Con from 0.0203392 to 0.0203392
Heightened Def Con from 0.0203392 to 0.0203392
Heightened Def Con from 0.0203412 to 0.0203412
Heightened Def Con from 0.0203591 to 0.0203592
Heightened Def Con from 0.0203592 to 0.0203592
Heightened Def Con from 0.0203613 to 0.0203613
Heightened Def Con from 0.0203791 to 0.0203791
Heightened Def Con from 0.0203791 to 0.0203791
Heightened Def Con from 0.0203813 to 0.0203813
Heightened Def Con from 0.020399 to 0.020399
Heightened Def Con from 0.0203991 to 0.0203991
Heightened Def Con from 0.0204014 to 0.0204014
Heightened Def Con from 0.020419 to 0.020419
Heightened Def Con from 0.020419 to 0.020419
Heightened Def Con from 0.0204214 to 0.0204214
Heightened Def Con from 0.0204389 to 0.0204389
Heightened Def Con from 0.0204389 to 0.020439
Heightened Def Con from 0.0204415 to 0.0204415
Heightened Def Con from 0.0204589 to 0.0204589
Heightened Def Con from 0.0204589 to 0.0204589
Heightened Def Con from 0.0204615 to 0.0204615
Heightened Def Con from 0.0204788 to 0.0204788
Heightened Def Con from 0.0204788 to 0.0204788
Heightened Def Con from 0.0204816 to 0.0204816
Heightened Def Con from 0.0204988 to 0.0204988
Heightened Def Con from 0.0204988 to 0.0204988
Heightened Def Con from 0.0205016 to 0.0205016
Heightened Def Con from 0.0205187 to 0.0205187
Heightened Def Con from 0.0205187 to 0.0205187
Heightened Def Con from 0.0205217 to 0.0205217
Heightened Def Con from 0.0205387 to 0.0205387
Heightened Def Con from 0.0205387 to 0.0205387
Heightened Def Con from 0.0205417 to 0.0205417
Heightened Def Con from 0.0205586 to 0.0205586
Heightened Def Con from 0.0205586 to 0.0205586
Heightened Def Con from 0.0205618 to 0.0205618
Heightened Def Con from 0.0205786 to 0.0205786
Heightened Def Con from 0.0205786 to 0.0205786
Heightened Def Con from 0.0205818 to 0.0205818
Heightened Def Con from 0.0205985 to 0.0205985
Heightened Def Con from 0.0205985 to 0.0205985
Heightened Def Con from 0.0206019 to 0.0206019
Heightened Def Con from 0.0206185 to 0.0206185
Heightened Def Con from 0.0206185 to 0.0206185
Heightened Def Con from 0.0206219 to 0.0206219
Heightened Def Con from 0.0206384 to 0.0206384
Heightened Def Con from 0.0206384 to 0.0206384
Heightened Def Con from 0.020642 to 0.020642
Heightened Def Con from 0.0206584 to 0.0206584
Heightened Def Con from 0.0206584 to 0.0206584
Heightened Def Con from 0.020662 to 0.020662
Heightened Def Con from 0.0206783 to 0.0206783
Heightened Def Con from 0.0206783 to 0.0206783
Heightened Def Con from 0.0206821 to 0.0206821
Heightened Def Con from 0.0206983 to 0.0206983
Heightened Def Con from 0.0206983 to 0.0206983
Heightened Def Con from 0.0207021 to 0.0207022
Heightened Def Con from 0.0207182 to 0.0207182
Heightened Def Con from 0.0207182 to 0.0207182
Heightened Def Con from 0.0207222 to 0.0207222
Heightened Def Con from 0.0207382 to 0.0207382
Heightened Def Con from 0.0207382 to 0.0207382
Heightened Def Con from 0.0207422 to 0.0207423
Heightened Def Con from 0.0207581 to 0.0207581
Heightened Def Con from 0.0207581 to 0.0207581
Heightened Def Con from 0.0207623 to 0.0207623
Heightened Def Con from 0.0207781 to 0.0207781
Heightened Def Con from 0.0207781 to 0.0207781
Heightened Def Con from 0.0207824 to 0.0207824
Heightened Def Con from 0.020798 to 0.020798
Heightened Def Con from 0.020798 to 0.020798
Heightened Def Con from 0.0208024 to 0.0208024
Heightened Def Con from 0.020818 to 0.020818
Heightened Def Con from 0.020818 to 0.020818
Heightened Def Con from 0.0208225 to 0.0208225
Heightened Def Con from 0.0208379 to 0.0208379
Heightened Def Con from 0.0208379 to 0.0208379
Heightened Def Con from 0.0208425 to 0.0208425
Heightened Def Con from 0.0208579 to 0.0208579
Heightened Def Con from 0.0208579 to 0.0208579
Heightened Def Con from 0.0208626 to 0.0208626
Heightened Def Con from 0.0208778 to 0.0208778
Heightened Def Con from 0.0208778 to 0.0208778
Heightened Def Con from 0.0208826 to 0.0208826
Heightened Def Con from 0.0208978 to 0.0208978
Heightened Def Con from 0.0208978 to 0.0208978
Heightened Def Con from 0.0209027 to 0.0209027
Heightened Def Con from 0.0209177 to 0.0209177
Heightened Def Con from 0.0209177 to 0.0209177
Heightened Def Con from 0.0209227 to 0.0209227
Heightened Def Con from 0.0209377 to 0.0209377
Heightened Def Con from 0.0209377 to 0.0209377
Heightened Def Con from 0.0209428 to 0.0209428
Heightened Def Con from 0.0209576 to 0.0209576
Heightened Def Con from 0.0209576 to 0.0209576
Heightened Def Con from 0.0209628 to 0.0209628
Heightened Def Con from 0.0209776 to 0.0209776
Heightened Def Con from 0.0209776 to 0.0209776
Heightened Def Con from 0.0209829 to 0.0209829
Heightened Def Con from 0.0209975 to 0.0209975
Heightened Def Con from 0.0209975 to 0.0209975

Date: Mon Mar 07 20:08:20 2022
Total elapsed time: 1074.530 seconds.

tnom = 27
temp = 27
method = modified trap
totiter = 17790802
traniter = 17790749
tranpoints = 6914656
accept = 5156090
rejected = 1761738
matrix size = 123
fillins = 218
solver = Alternate
Thread vector: 36.1/30.2[3] 10.5/7.0[3] 4.4/2.3[3] 1.5/1.6[1]  2592/500
Matrix Compiler1: 25.44 KB object code size  6.2/4.9/[3.5]
Matrix Compiler2: 15.76 KB object code size  2.6/3.8/[1.2]

