Circuit: * C:\Users\ycay\Desktop\FullBridge_Modulations\Transformless_SP_Inverter\FullBridge_LTspice\UF3C065040K4S\Unipolar_UF3C065040K4S_DeadTime.asc

Instance "m:u4:m1:2": Length shorter than recommended for a level 3 MOSFET.
Instance "m:u4:m1:1": Length shorter than recommended for a level 3 MOSFET.
Instance "m:u3:m1:2": Length shorter than recommended for a level 3 MOSFET.
Instance "m:u3:m1:1": Length shorter than recommended for a level 3 MOSFET.
Instance "m:u2:m1:2": Length shorter than recommended for a level 3 MOSFET.
Instance "m:u2:m1:1": Length shorter than recommended for a level 3 MOSFET.
Instance "m:u1:m1:2": Length shorter than recommended for a level 3 MOSFET.
Instance "m:u1:m1:1": Length shorter than recommended for a level 3 MOSFET.
Direct Newton iteration for .op point succeeded.
Heightened Def Con from 5.07485e-006 to 5.08085e-006
Heightened Def Con from 5.08093e-006 to 5.08131e-006
Heightened Def Con from 5.08174e-006 to 5.08787e-006
Heightened Def Con from 5.08839e-006 to 5.09339e-006
Heightened Def Con from 5.09446e-006 to 5.09846e-006
Heightened Def Con from 1.50615e-005 to 1.50715e-005
Heightened Def Con from 1.51018e-005 to 1.51069e-005
Heightened Def Con from 1.51077e-005 to 1.51117e-005
Heightened Def Con from 2.50483e-005 to 2.50533e-005
Heightened Def Con from 2.50546e-005 to 2.50586e-005
Heightened Def Con from 2.51153e-005 to 2.51313e-005
Heightened Def Con from 3.50347e-005 to 3.50387e-005
Heightened Def Con from 3.50412e-005 to 3.50452e-005
Heightened Def Con from 3.51291e-005 to 3.51431e-005
Heightened Def Con from 4.502e-005 to 4.5024e-005
Heightened Def Con from 4.50267e-005 to 4.50307e-005
Heightened Def Con from 5.5008e-005 to 5.5013e-005
Heightened Def Con from 5.50147e-005 to 5.50187e-005
Heightened Def Con from 6.49947e-005 to 6.49997e-005
Heightened Def Con from 6.50015e-005 to 6.50045e-005
Heightened Def Con from 7.49811e-005 to 7.49851e-005
Heightened Def Con from 7.49879e-005 to 7.49919e-005
Heightened Def Con from 8.49678e-005 to 8.49718e-005
Heightened Def Con from 8.49746e-005 to 8.49786e-005
Heightened Def Con from 9.49544e-005 to 9.49584e-005
Heightened Def Con from 9.49613e-005 to 9.49653e-005
Heightened Def Con from 0.000104941 to 0.000104945
Heightened Def Con from 0.000104948 to 0.000104952
Heightened Def Con from 0.000114928 to 0.000114932
Heightened Def Con from 0.000114935 to 0.000114939
Heightened Def Con from 0.000124914 to 0.000124918
Heightened Def Con from 0.000124921 to 0.000124925
Heightened Def Con from 0.0001349 to 0.000134904
Heightened Def Con from 0.000134907 to 0.000134911
Heightened Def Con from 0.000144887 to 0.000144891
Heightened Def Con from 0.000144894 to 0.000144898
Heightened Def Con from 0.000154875 to 0.000154879
Heightened Def Con from 0.000154882 to 0.000154886
Heightened Def Con from 0.000164861 to 0.000164865
Heightened Def Con from 0.000164868 to 0.000164872
Heightened Def Con from 0.000174847 to 0.000174851
Heightened Def Con from 0.000174854 to 0.000174858
Heightened Def Con from 0.000184834 to 0.000184838
Heightened Def Con from 0.000184841 to 0.000184845
Heightened Def Con from 0.00019482 to 0.000194824
Heightened Def Con from 0.000194827 to 0.000194831
Heightened Def Con from 0.000204807 to 0.000204811
Heightened Def Con from 0.000204814 to 0.000204818
Heightened Def Con from 0.000214794 to 0.000214798
Heightened Def Con from 0.000214801 to 0.000214805
Heightened Def Con from 0.00022478 to 0.000224784
Heightened Def Con from 0.000224787 to 0.000224791
Heightened Def Con from 0.000234768 to 0.000234772
Heightened Def Con from 0.000234775 to 0.000234779
Heightened Def Con from 0.000244753 to 0.000244757
Heightened Def Con from 0.00024476 to 0.000244764
Heightened Def Con from 0.00025474 to 0.000254744
Heightened Def Con from 0.000254747 to 0.000254751
Heightened Def Con from 0.000264727 to 0.000264731
Heightened Def Con from 0.000264734 to 0.000264738
Heightened Def Con from 0.000265664 to 0.000265665
Heightened Def Con from 0.000265665 to 0.000265673
Heightened Def Con from 0.000274713 to 0.000274717
Heightened Def Con from 0.000274721 to 0.000274725
Heightened Def Con from 0.000275676 to 0.0002757
Heightened Def Con from 0.0002847 to 0.000284704
Heightened Def Con from 0.000284707 to 0.000284711
Heightened Def Con from 0.000285691 to 0.000285699
Heightened Def Con from 0.000294687 to 0.000294691
Heightened Def Con from 0.000294694 to 0.000294698
Heightened Def Con from 0.000295703 to 0.00029571
Heightened Def Con from 0.000304673 to 0.000304677
Heightened Def Con from 0.000304681 to 0.000304685
Heightened Def Con from 0.000305718 to 0.000305723
Heightened Def Con from 0.00031466 to 0.000314664
Heightened Def Con from 0.000314667 to 0.000314671
Heightened Def Con from 0.00031573 to 0.000315736
Heightened Def Con from 0.000324647 to 0.000324651
Heightened Def Con from 0.000324654 to 0.000324658
Heightened Def Con from 0.000325744 to 0.00032575
Heightened Def Con from 0.000334633 to 0.000334637
Heightened Def Con from 0.00033464 to 0.000334644
Heightened Def Con from 0.000335757 to 0.000335763
Heightened Def Con from 0.00034462 to 0.000344624
Heightened Def Con from 0.000344627 to 0.000344631
Heightened Def Con from 0.000345771 to 0.000345776
Heightened Def Con from 0.000354606 to 0.00035461
Heightened Def Con from 0.000354614 to 0.000354618
Heightened Def Con from 0.000355783 to 0.000355787
Heightened Def Con from 0.000364593 to 0.000364597
Heightened Def Con from 0.000364601 to 0.000364605
Heightened Def Con from 0.000365798 to 0.000365804
Heightened Def Con from 0.00037458 to 0.000374584
Heightened Def Con from 0.000374587 to 0.000374591
Heightened Def Con from 0.00037581 to 0.000375817
Heightened Def Con from 0.000384567 to 0.000384571
Heightened Def Con from 0.000384574 to 0.000384577
Heightened Def Con from 0.000385824 to 0.000385829
Heightened Def Con from 0.000394553 to 0.000394557
Heightened Def Con from 0.00039456 to 0.000394564
Heightened Def Con from 0.000395836 to 0.000395843
Heightened Def Con from 0.000404541 to 0.000404545
Heightened Def Con from 0.000404549 to 0.000404549
Heightened Def Con from 0.00040455 to 0.000404554
Heightened Def Con from 0.000405851 to 0.000405856
Heightened Def Con from 0.000414528 to 0.000414532
Heightened Def Con from 0.000414535 to 0.000414539
Heightened Def Con from 0.000415863 to 0.000415869
Heightened Def Con from 0.000424513 to 0.000424517
Heightened Def Con from 0.000424521 to 0.000424525
Heightened Def Con from 0.000425878 to 0.000425883
Heightened Def Con from 0.0004345 to 0.000434504
Heightened Def Con from 0.000434507 to 0.000434511
Heightened Def Con from 0.00043589 to 0.000435894
Heightened Def Con from 0.000444487 to 0.000444491
Heightened Def Con from 0.000444494 to 0.000444498
Heightened Def Con from 0.000445904 to 0.000445909
Heightened Def Con from 0.000454474 to 0.000454478
Heightened Def Con from 0.000454481 to 0.000454485
Heightened Def Con from 0.000455916 to 0.00045592
Heightened Def Con from 0.00046446 to 0.000464464
Heightened Def Con from 0.000464468 to 0.000464472
Heightened Def Con from 0.000465931 to 0.000465936
Heightened Def Con from 0.000474446 to 0.00047445
Heightened Def Con from 0.000474454 to 0.000474458
Heightened Def Con from 0.000475943 to 0.000475947
Heightened Def Con from 0.000484434 to 0.000484438
Heightened Def Con from 0.000484441 to 0.000484445
Heightened Def Con from 0.000485957 to 0.000485962
Heightened Def Con from 0.000494421 to 0.000494425
Heightened Def Con from 0.000494428 to 0.000494432
Heightened Def Con from 0.000495969 to 0.000495975
Heightened Def Con from 0.000504408 to 0.000504412
Heightened Def Con from 0.000504416 to 0.00050442
Heightened Def Con from 0.000505984 to 0.000505989
Heightened Def Con from 0.000514394 to 0.000514398
Heightened Def Con from 0.000514401 to 0.000514405
Heightened Def Con from 0.000515997 to 0.000516003
Heightened Def Con from 0.000524381 to 0.000524385
Heightened Def Con from 0.000524389 to 0.000524393
Heightened Def Con from 0.000526011 to 0.000526016
Heightened Def Con from 0.000534368 to 0.000534372
Heightened Def Con from 0.000534375 to 0.000534379
Heightened Def Con from 0.000536023 to 0.000536027
Heightened Def Con from 0.000544354 to 0.000544358
Heightened Def Con from 0.000544362 to 0.000544366
Heightened Def Con from 0.000546037 to 0.000546042
Heightened Def Con from 0.000554341 to 0.000554345
Heightened Def Con from 0.000554349 to 0.000554353
Heightened Def Con from 0.000556049 to 0.000556053
Heightened Def Con from 0.000564328 to 0.000564332
Heightened Def Con from 0.000564336 to 0.00056434
Heightened Def Con from 0.000566064 to 0.000566069
Heightened Def Con from 0.000574315 to 0.000574319
Heightened Def Con from 0.000574322 to 0.000574326
Heightened Def Con from 0.000576076 to 0.00057608
Heightened Def Con from 0.000584302 to 0.000584306
Heightened Def Con from 0.000584309 to 0.000584313
Heightened Def Con from 0.00058609 to 0.000586095
Heightened Def Con from 0.000594288 to 0.000594292
Heightened Def Con from 0.000594296 to 0.0005943
Heightened Def Con from 0.000596102 to 0.000596108
Heightened Def Con from 0.000604275 to 0.000604279
Heightened Def Con from 0.000604283 to 0.000604286
Heightened Def Con from 0.000606117 to 0.000606122
Heightened Def Con from 0.000614262 to 0.000614266
Heightened Def Con from 0.00061427 to 0.000614274
Heightened Def Con from 0.000616129 to 0.000616135
Heightened Def Con from 0.000624249 to 0.000624253
Heightened Def Con from 0.000624256 to 0.00062426
Heightened Def Con from 0.000626143 to 0.000626148
Heightened Def Con from 0.000634236 to 0.00063424
Heightened Def Con from 0.000634243 to 0.000634247
Heightened Def Con from 0.000636155 to 0.000636159
Heightened Def Con from 0.000644223 to 0.000644227
Heightened Def Con from 0.00064423 to 0.000644234
Heightened Def Con from 0.000646169 to 0.000646174
Heightened Def Con from 0.000654209 to 0.000654213
Heightened Def Con from 0.000654217 to 0.000654221
Heightened Def Con from 0.000656181 to 0.000656187
Heightened Def Con from 0.000664196 to 0.0006642
Heightened Def Con from 0.000664204 to 0.000664208
Heightened Def Con from 0.000666196 to 0.000666201
Heightened Def Con from 0.000674183 to 0.000674187
Heightened Def Con from 0.000674191 to 0.000674195
Heightened Def Con from 0.000676208 to 0.000676214
Heightened Def Con from 0.00068417 to 0.000684174
Heightened Def Con from 0.000684178 to 0.000684182
Heightened Def Con from 0.000686222 to 0.000686227
Heightened Def Con from 0.000694157 to 0.000694161
Heightened Def Con from 0.000694165 to 0.000694169
Heightened Def Con from 0.000696233 to 0.000696239
Heightened Def Con from 0.000704144 to 0.000704148
Heightened Def Con from 0.000704152 to 0.000704156
Heightened Def Con from 0.000706248 to 0.000706253
Heightened Def Con from 0.000714131 to 0.000714135
Heightened Def Con from 0.000714139 to 0.000714143
Heightened Def Con from 0.00071626 to 0.000716264
Heightened Def Con from 0.000724118 to 0.000724122
Heightened Def Con from 0.000724125 to 0.000724129
Heightened Def Con from 0.000726275 to 0.00072628
Heightened Def Con from 0.000734104 to 0.000734108
Heightened Def Con from 0.000734111 to 0.000734115
Heightened Def Con from 0.000736286 to 0.000736292
Heightened Def Con from 0.000744091 to 0.000744095
Heightened Def Con from 0.000744099 to 0.000744103
Heightened Def Con from 0.000746301 to 0.000746306
Heightened Def Con from 0.000754079 to 0.000754083
Heightened Def Con from 0.000754086 to 0.00075409
Heightened Def Con from 0.000756312 to 0.000756316
Heightened Def Con from 0.000764066 to 0.00076407
Heightened Def Con from 0.000764073 to 0.000764076
Heightened Def Con from 0.000766328 to 0.000766333
Heightened Def Con from 0.000774052 to 0.000774056
Heightened Def Con from 0.00077406 to 0.000774064
Heightened Def Con from 0.000776339 to 0.000776345
Heightened Def Con from 0.00078404 to 0.000784044
Heightened Def Con from 0.000784047 to 0.000784051
Heightened Def Con from 0.000786353 to 0.000786358
Heightened Def Con from 0.000794027 to 0.000794031
Heightened Def Con from 0.000794034 to 0.000794038
Heightened Def Con from 0.000796365 to 0.000796371
Heightened Def Con from 0.000804014 to 0.000804018
Heightened Def Con from 0.000804022 to 0.000804026
Heightened Def Con from 0.000806379 to 0.000806384
Heightened Def Con from 0.000814001 to 0.000814005
Heightened Def Con from 0.000814008 to 0.000814012
Heightened Def Con from 0.000816391 to 0.000816397
Heightened Def Con from 0.000823988 to 0.000823992
Heightened Def Con from 0.000823995 to 0.000823999
Heightened Def Con from 0.000826405 to 0.00082641
Heightened Def Con from 0.000833975 to 0.000833979
Heightened Def Con from 0.000833982 to 0.000833986
Heightened Def Con from 0.000836417 to 0.000836423
Heightened Def Con from 0.000843963 to 0.000843967
Heightened Def Con from 0.000843971 to 0.000843975
Heightened Def Con from 0.000846431 to 0.000846436
Heightened Def Con from 0.000853949 to 0.000853953
Heightened Def Con from 0.000853956 to 0.00085396
Heightened Def Con from 0.000856442 to 0.000856448
Heightened Def Con from 0.000863936 to 0.00086394
Heightened Def Con from 0.000863944 to 0.000863948
Heightened Def Con from 0.000866457 to 0.000866462
Heightened Def Con from 0.000873923 to 0.000873927
Heightened Def Con from 0.000873931 to 0.000873935
Heightened Def Con from 0.000876468 to 0.000876474
Heightened Def Con from 0.000883909 to 0.000883913
Heightened Def Con from 0.000883916 to 0.00088392
Heightened Def Con from 0.000886483 to 0.000886488
Heightened Def Con from 0.000893897 to 0.000893901
Heightened Def Con from 0.000893905 to 0.000893909
Heightened Def Con from 0.000896494 to 0.0008965
Heightened Def Con from 0.000903884 to 0.000903888
Heightened Def Con from 0.000903892 to 0.000903896
Heightened Def Con from 0.000906509 to 0.000906514
Heightened Def Con from 0.000913871 to 0.000913875
Heightened Def Con from 0.000913879 to 0.000913883
Heightened Def Con from 0.00091652 to 0.000916526
Heightened Def Con from 0.000923859 to 0.000923863
Heightened Def Con from 0.000923866 to 0.00092387
Heightened Def Con from 0.000926534 to 0.000926539
Heightened Def Con from 0.000933846 to 0.00093385
Heightened Def Con from 0.000933853 to 0.000933857
Heightened Def Con from 0.000936546 to 0.000936552
Heightened Def Con from 0.000943832 to 0.000943836
Heightened Def Con from 0.000943839 to 0.00094384
Heightened Def Con from 0.00094384 to 0.000943844
Heightened Def Con from 0.00094656 to 0.000946565
Heightened Def Con from 0.00095382 to 0.000953824
Heightened Def Con from 0.000953828 to 0.000953832
Heightened Def Con from 0.000956572 to 0.000956578
Heightened Def Con from 0.000963808 to 0.000963812
Heightened Def Con from 0.000963815 to 0.000963819
Heightened Def Con from 0.000966586 to 0.000966591
Heightened Def Con from 0.000973794 to 0.000973798
Heightened Def Con from 0.000973802 to 0.000973806
Heightened Def Con from 0.000976598 to 0.000976604
Heightened Def Con from 0.000983782 to 0.000983786
Heightened Def Con from 0.000983789 to 0.000983793
Heightened Def Con from 0.000986611 to 0.000986616
Heightened Def Con from 0.000993769 to 0.000993773
Heightened Def Con from 0.000993777 to 0.000993781
Heightened Def Con from 0.000996623 to 0.000996629
Heightened Def Con from 0.00100376 to 0.00100376
Heightened Def Con from 0.00100376 to 0.00100377
Heightened Def Con from 0.00100664 to 0.00100664
Heightened Def Con from 0.00101374 to 0.00101375
Heightened Def Con from 0.00101375 to 0.00101376
Heightened Def Con from 0.00101665 to 0.00101665
Heightened Def Con from 0.00102373 to 0.00102373
Heightened Def Con from 0.00102374 to 0.00102374
Heightened Def Con from 0.00102666 to 0.00102667
Heightened Def Con from 0.00103372 to 0.00103372
Heightened Def Con from 0.00103373 to 0.00103373
Heightened Def Con from 0.00103667 to 0.00103667
Heightened Def Con from 0.00103667 to 0.00103668
Heightened Def Con from 0.00104371 to 0.00104371
Heightened Def Con from 0.00104371 to 0.00104372
Heightened Def Con from 0.00104669 to 0.00104669
Heightened Def Con from 0.00105369 to 0.0010537
Heightened Def Con from 0.0010537 to 0.0010537
Heightened Def Con from 0.0010567 to 0.0010567
Heightened Def Con from 0.0010567 to 0.0010567
Heightened Def Con from 0.00106368 to 0.00106368
Heightened Def Con from 0.00106369 to 0.00106369
Heightened Def Con from 0.00106671 to 0.00106672
Heightened Def Con from 0.00107367 to 0.00107367
Heightened Def Con from 0.00107367 to 0.00107368
Heightened Def Con from 0.00107672 to 0.00107673
Heightened Def Con from 0.00107673 to 0.00107673
Heightened Def Con from 0.00108365 to 0.00108366
Heightened Def Con from 0.00108366 to 0.00108367
Heightened Def Con from 0.00108674 to 0.00108674
Heightened Def Con from 0.00109364 to 0.00109365
Heightened Def Con from 0.00109365 to 0.00109365
Heightened Def Con from 0.00109675 to 0.00109675
Heightened Def Con from 0.00109675 to 0.00109676
Heightened Def Con from 0.00110363 to 0.00110363
Heightened Def Con from 0.00110364 to 0.00110364
Heightened Def Con from 0.00110676 to 0.00110677
Heightened Def Con from 0.00111362 to 0.00111362
Heightened Def Con from 0.00111362 to 0.00111363
Heightened Def Con from 0.00111678 to 0.00111678
Heightened Def Con from 0.00111678 to 0.00111678
Heightened Def Con from 0.0011236 to 0.00112361
Heightened Def Con from 0.00112361 to 0.00112362
Heightened Def Con from 0.00112679 to 0.00112679
Heightened Def Con from 0.00113359 to 0.0011336
Heightened Def Con from 0.0011336 to 0.0011336
Heightened Def Con from 0.0011368 to 0.0011368
Heightened Def Con from 0.0011368 to 0.00113681
Heightened Def Con from 0.00114358 to 0.00114358
Heightened Def Con from 0.00114359 to 0.00114359
Heightened Def Con from 0.00114681 to 0.00114682
Heightened Def Con from 0.00115357 to 0.00115357
Heightened Def Con from 0.00115357 to 0.00115358
Heightened Def Con from 0.00115683 to 0.00115683
Heightened Def Con from 0.00115683 to 0.00115683
Heightened Def Con from 0.00116355 to 0.00116356
Heightened Def Con from 0.00116356 to 0.00116357
Heightened Def Con from 0.00116684 to 0.00116685
Heightened Def Con from 0.00117354 to 0.00117355
Heightened Def Con from 0.00117355 to 0.00117355
Heightened Def Con from 0.00117685 to 0.00117685
Heightened Def Con from 0.00117685 to 0.00117686
Heightened Def Con from 0.00118353 to 0.00118353
Heightened Def Con from 0.00118354 to 0.00118354
Heightened Def Con from 0.00118686 to 0.00118687
Heightened Def Con from 0.00119352 to 0.00119352
Heightened Def Con from 0.00119352 to 0.00119353
Heightened Def Con from 0.00119688 to 0.00119688
Heightened Def Con from 0.00119688 to 0.00119688
Heightened Def Con from 0.0012035 to 0.00120351
Heightened Def Con from 0.00120351 to 0.00120352
Heightened Def Con from 0.00120689 to 0.00120689
Heightened Def Con from 0.00121349 to 0.00121349
Heightened Def Con from 0.0012135 to 0.0012135
Heightened Def Con from 0.0012169 to 0.0012169
Heightened Def Con from 0.0012169 to 0.00121691
Heightened Def Con from 0.00122348 to 0.00122348
Heightened Def Con from 0.00122349 to 0.00122349
Heightened Def Con from 0.00122691 to 0.00122692
Heightened Def Con from 0.00123347 to 0.00123347
Heightened Def Con from 0.00123347 to 0.00123348
Heightened Def Con from 0.00123693 to 0.00123693
Heightened Def Con from 0.00123693 to 0.00123693
Heightened Def Con from 0.00124345 to 0.00124346
Heightened Def Con from 0.00124346 to 0.00124347
Heightened Def Con from 0.00124694 to 0.00124694
Heightened Def Con from 0.00125344 to 0.00125345
Heightened Def Con from 0.00125345 to 0.00125345
Heightened Def Con from 0.00125695 to 0.00125695
Heightened Def Con from 0.00125695 to 0.00125696
Heightened Def Con from 0.00126343 to 0.00126343
Heightened Def Con from 0.00126344 to 0.00126344
Heightened Def Con from 0.00126696 to 0.00126697
Heightened Def Con from 0.00127342 to 0.00127342
Heightened Def Con from 0.00127342 to 0.00127343
Heightened Def Con from 0.00127698 to 0.00127698
Heightened Def Con from 0.00127698 to 0.00127698
Heightened Def Con from 0.00128341 to 0.00128341
Heightened Def Con from 0.00128341 to 0.00128342
Heightened Def Con from 0.00128699 to 0.00128699
Heightened Def Con from 0.00129339 to 0.0012934
Heightened Def Con from 0.0012934 to 0.0012934
Heightened Def Con from 0.001297 to 0.001297
Heightened Def Con from 0.001297 to 0.00129701
Heightened Def Con from 0.00130338 to 0.00130338
Heightened Def Con from 0.00130339 to 0.00130339
Heightened Def Con from 0.00130701 to 0.00130702
Heightened Def Con from 0.00131337 to 0.00131337
Heightened Def Con from 0.00131337 to 0.00131338
Heightened Def Con from 0.00131702 to 0.00131703
Heightened Def Con from 0.00131703 to 0.00131703
Heightened Def Con from 0.00132336 to 0.00132336
Heightened Def Con from 0.00132336 to 0.00132337
Heightened Def Con from 0.00132704 to 0.00132704
Heightened Def Con from 0.00133334 to 0.00133335
Heightened Def Con from 0.00133335 to 0.00133336
Heightened Def Con from 0.00133704 to 0.00133704
Heightened Def Con from 0.00133705 to 0.00133705
Heightened Def Con from 0.00133705 to 0.00133706
Heightened Def Con from 0.00134333 to 0.00134333
Heightened Def Con from 0.00134334 to 0.00134334
Heightened Def Con from 0.00134706 to 0.00134707
Heightened Def Con from 0.00135332 to 0.00135332
Heightened Def Con from 0.00135333 to 0.00135333
Heightened Def Con from 0.00135707 to 0.00135707
Heightened Def Con from 0.00135707 to 0.00135708
Heightened Def Con from 0.00136331 to 0.00136331
Heightened Def Con from 0.00136332 to 0.00136332
Heightened Def Con from 0.00136709 to 0.00136709
Heightened Def Con from 0.00137329 to 0.0013733
Heightened Def Con from 0.0013733 to 0.00137331
Heightened Def Con from 0.0013771 to 0.0013771
Heightened Def Con from 0.0013771 to 0.0013771
Heightened Def Con from 0.00138328 to 0.00138329
Heightened Def Con from 0.00138329 to 0.00138329
Heightened Def Con from 0.00138711 to 0.00138712
Heightened Def Con from 0.00139327 to 0.00139327
Heightened Def Con from 0.00139328 to 0.00139328
Heightened Def Con from 0.00139712 to 0.00139712
Heightened Def Con from 0.00139712 to 0.00139713
Heightened Def Con from 0.00140326 to 0.00140326
Heightened Def Con from 0.00140327 to 0.00140327
Heightened Def Con from 0.00140714 to 0.00140714
Heightened Def Con from 0.00141325 to 0.00141325
Heightened Def Con from 0.00141325 to 0.00141326
Heightened Def Con from 0.00141715 to 0.00141715
Heightened Def Con from 0.00141715 to 0.00141715
Heightened Def Con from 0.00142323 to 0.00142324
Heightened Def Con from 0.00142324 to 0.00142325
Heightened Def Con from 0.00142716 to 0.00142717
Heightened Def Con from 0.00143322 to 0.00143323
Heightened Def Con from 0.00143323 to 0.00143323
Heightened Def Con from 0.00143717 to 0.00143717
Heightened Def Con from 0.00143717 to 0.00143718
Heightened Def Con from 0.00144321 to 0.00144321
Heightened Def Con from 0.00144322 to 0.00144322
Heightened Def Con from 0.00144718 to 0.00144719
Heightened Def Con from 0.0014532 to 0.0014532
Heightened Def Con from 0.0014532 to 0.00145321
Heightened Def Con from 0.0014572 to 0.0014572
Heightened Def Con from 0.0014572 to 0.0014572
Heightened Def Con from 0.00146319 to 0.00146319
Heightened Def Con from 0.00146319 to 0.0014632
Heightened Def Con from 0.00146721 to 0.00146721
Heightened Def Con from 0.00147317 to 0.00147318
Heightened Def Con from 0.00147318 to 0.00147319
Heightened Def Con from 0.00147722 to 0.00147722
Heightened Def Con from 0.00147722 to 0.00147723
Heightened Def Con from 0.00148316 to 0.00148316
Heightened Def Con from 0.00148317 to 0.00148317
Heightened Def Con from 0.00148723 to 0.00148724
Heightened Def Con from 0.00149315 to 0.00149315
Heightened Def Con from 0.00149316 to 0.00149316
Heightened Def Con from 0.00149724 to 0.00149724
Heightened Def Con from 0.00149724 to 0.00149725
Heightened Def Con from 0.00150314 to 0.00150314
Heightened Def Con from 0.00150315 to 0.00150315
Heightened Def Con from 0.00150726 to 0.00150726
Heightened Def Con from 0.00151312 to 0.00151313
Heightened Def Con from 0.00151313 to 0.00151314
Heightened Def Con from 0.00151727 to 0.00151727
Heightened Def Con from 0.00151727 to 0.00151727
Heightened Def Con from 0.00152311 to 0.00152312
Heightened Def Con from 0.00152312 to 0.00152312
Heightened Def Con from 0.00152312 to 0.00152313
Heightened Def Con from 0.00152728 to 0.00152729
Heightened Def Con from 0.0015331 to 0.0015331
Heightened Def Con from 0.00153311 to 0.00153311
Heightened Def Con from 0.00153729 to 0.00153729
Heightened Def Con from 0.00153729 to 0.0015373
Heightened Def Con from 0.00154309 to 0.00154309
Heightened Def Con from 0.0015431 to 0.0015431
Heightened Def Con from 0.00154731 to 0.00154731
Heightened Def Con from 0.00155308 to 0.00155308
Heightened Def Con from 0.00155309 to 0.00155309
Heightened Def Con from 0.00155731 to 0.00155732
Heightened Def Con from 0.00155732 to 0.00155732
Heightened Def Con from 0.00156307 to 0.00156307
Heightened Def Con from 0.00156307 to 0.00156308
Heightened Def Con from 0.00156733 to 0.00156733
Heightened Def Con from 0.00157305 to 0.00157306
Heightened Def Con from 0.00157306 to 0.00157307
Heightened Def Con from 0.00157734 to 0.00157734
Heightened Def Con from 0.00157734 to 0.00157734
Heightened Def Con from 0.00158304 to 0.00158305
Heightened Def Con from 0.00158305 to 0.00158305
Heightened Def Con from 0.00158735 to 0.00158736
Heightened Def Con from 0.00159303 to 0.00159303
Heightened Def Con from 0.00159304 to 0.00159304
Heightened Def Con from 0.00159736 to 0.00159736
Heightened Def Con from 0.00159736 to 0.00159737
Heightened Def Con from 0.00160302 to 0.00160302
Heightened Def Con from 0.00160303 to 0.00160303
Heightened Def Con from 0.00160738 to 0.00160738
Heightened Def Con from 0.00161301 to 0.00161301
Heightened Def Con from 0.00161301 to 0.00161302
Heightened Def Con from 0.00161739 to 0.00161739
Heightened Def Con from 0.00161739 to 0.00161739
Heightened Def Con from 0.001623 to 0.001623
Heightened Def Con from 0.001623 to 0.00162301
Heightened Def Con from 0.0016274 to 0.0016274
Heightened Def Con from 0.00163298 to 0.00163299
Heightened Def Con from 0.00163299 to 0.001633
Heightened Def Con from 0.00163741 to 0.00163741
Heightened Def Con from 0.00163741 to 0.00163742
Heightened Def Con from 0.00164297 to 0.00164298
Heightened Def Con from 0.00164298 to 0.00164298
Heightened Def Con from 0.00164742 to 0.00164743
Heightened Def Con from 0.00165296 to 0.00165296
Heightened Def Con from 0.00165297 to 0.00165297
Heightened Def Con from 0.00165743 to 0.00165743
Heightened Def Con from 0.00165743 to 0.00165744
Heightened Def Con from 0.00166295 to 0.00166295
Heightened Def Con from 0.00166296 to 0.00166296
Heightened Def Con from 0.00166745 to 0.00166745
Heightened Def Con from 0.00167294 to 0.00167294
Heightened Def Con from 0.00167295 to 0.00167295
Heightened Def Con from 0.00167746 to 0.00167746
Heightened Def Con from 0.00167746 to 0.00167746
Heightened Def Con from 0.00168293 to 0.00168293
Heightened Def Con from 0.00168293 to 0.00168294
Heightened Def Con from 0.00168747 to 0.00168747
Heightened Def Con from 0.00169291 to 0.00169292
Heightened Def Con from 0.00169292 to 0.00169293
Heightened Def Con from 0.00169748 to 0.00169748
Heightened Def Con from 0.00169748 to 0.00169749
Heightened Def Con from 0.0017029 to 0.00170291
Heightened Def Con from 0.00170291 to 0.00170291
Heightened Def Con from 0.00170749 to 0.0017075
Heightened Def Con from 0.00171289 to 0.00171289
Heightened Def Con from 0.0017129 to 0.0017129
Heightened Def Con from 0.0017175 to 0.0017175
Heightened Def Con from 0.0017175 to 0.00171751
Heightened Def Con from 0.00172288 to 0.00172288
Heightened Def Con from 0.00172289 to 0.00172289
Heightened Def Con from 0.00172752 to 0.00172752
Heightened Def Con from 0.00173287 to 0.00173287
Heightened Def Con from 0.00173288 to 0.00173288
Heightened Def Con from 0.00173753 to 0.00173753
Heightened Def Con from 0.00173753 to 0.00173753
Heightened Def Con from 0.00174286 to 0.00174286
Heightened Def Con from 0.00174286 to 0.00174287
Heightened Def Con from 0.00174754 to 0.00174754
Heightened Def Con from 0.00175285 to 0.00175285
Heightened Def Con from 0.00175285 to 0.00175286
Heightened Def Con from 0.00175755 to 0.00175755
Heightened Def Con from 0.00175755 to 0.00175755
Heightened Def Con from 0.00176283 to 0.00176284
Heightened Def Con from 0.00176284 to 0.00176285
Heightened Def Con from 0.00176756 to 0.00176757
Heightened Def Con from 0.00177282 to 0.00177283
Heightened Def Con from 0.00177283 to 0.00177283
Heightened Def Con from 0.00177757 to 0.00177757
Heightened Def Con from 0.00177757 to 0.00177758
Heightened Def Con from 0.00178281 to 0.00178281
Heightened Def Con from 0.00178282 to 0.00178282
Heightened Def Con from 0.00178758 to 0.00178759
Heightened Def Con from 0.0017928 to 0.0017928
Heightened Def Con from 0.00179281 to 0.00179281
Heightened Def Con from 0.00179759 to 0.00179759
Heightened Def Con from 0.0017976 to 0.0017976
Heightened Def Con from 0.00180279 to 0.00180279
Heightened Def Con from 0.0018028 to 0.0018028
Heightened Def Con from 0.00180761 to 0.00180761
Heightened Def Con from 0.00181278 to 0.00181278
Heightened Def Con from 0.00181278 to 0.00181279
Heightened Def Con from 0.00181762 to 0.00181762
Heightened Def Con from 0.00181762 to 0.00181762
Heightened Def Con from 0.00182277 to 0.00182277
Heightened Def Con from 0.00182277 to 0.00182278
Heightened Def Con from 0.00182763 to 0.00182763
Heightened Def Con from 0.00183275 to 0.00183276
Heightened Def Con from 0.00183276 to 0.00183277
Heightened Def Con from 0.00183764 to 0.00183764
Heightened Def Con from 0.00183764 to 0.00183765
Heightened Def Con from 0.00184274 to 0.00184275
Heightened Def Con from 0.00184275 to 0.00184276
Heightened Def Con from 0.00184765 to 0.00184766
Heightened Def Con from 0.00185273 to 0.00185274
Heightened Def Con from 0.00185274 to 0.00185274
Heightened Def Con from 0.00185766 to 0.00185766
Heightened Def Con from 0.00185766 to 0.00185767
Heightened Def Con from 0.00186272 to 0.00186273
Heightened Def Con from 0.00186273 to 0.00186273
Heightened Def Con from 0.00186767 to 0.00186768
Heightened Def Con from 0.00187271 to 0.00187271
Heightened Def Con from 0.00187272 to 0.00187272
Heightened Def Con from 0.00187768 to 0.00187769
Heightened Def Con from 0.0018827 to 0.0018827
Heightened Def Con from 0.00188271 to 0.00188271
Heightened Def Con from 0.00188271 to 0.00188271
Heightened Def Con from 0.0018877 to 0.0018877
Heightened Def Con from 0.00189269 to 0.00189269
Heightened Def Con from 0.0018927 to 0.0018927
Heightened Def Con from 0.00189771 to 0.00189771
Heightened Def Con from 0.00189771 to 0.00189771
Heightened Def Con from 0.00190268 to 0.00190268
Heightened Def Con from 0.00190268 to 0.00190269
Heightened Def Con from 0.00190772 to 0.00190772
Heightened Def Con from 0.00191266 to 0.00191267
Heightened Def Con from 0.00191267 to 0.00191268
Heightened Def Con from 0.00191773 to 0.00191773
Heightened Def Con from 0.00191773 to 0.00191773
Heightened Def Con from 0.00192265 to 0.00192266
Heightened Def Con from 0.00192266 to 0.00192267
Heightened Def Con from 0.00192774 to 0.00192775
Heightened Def Con from 0.00193264 to 0.00193265
Heightened Def Con from 0.00193265 to 0.00193266
Heightened Def Con from 0.00193775 to 0.00193775
Heightened Def Con from 0.00193775 to 0.00193776
Heightened Def Con from 0.00194263 to 0.00194263
Heightened Def Con from 0.00194264 to 0.00194264
Heightened Def Con from 0.00194776 to 0.00194777
Heightened Def Con from 0.00195262 to 0.00195262
Heightened Def Con from 0.00195263 to 0.00195263
Heightened Def Con from 0.00195777 to 0.00195777
Heightened Def Con from 0.00195777 to 0.00195778
Heightened Def Con from 0.00196261 to 0.00196261
Heightened Def Con from 0.00196262 to 0.00196262
Heightened Def Con from 0.00196779 to 0.00196779
Heightened Def Con from 0.0019726 to 0.0019726
Heightened Def Con from 0.00197261 to 0.00197261
Heightened Def Con from 0.00197779 to 0.00197779
Heightened Def Con from 0.00197779 to 0.0019778
Heightened Def Con from 0.00198259 to 0.00198259
Heightened Def Con from 0.0019826 to 0.0019826
Heightened Def Con from 0.00198781 to 0.00198781
Heightened Def Con from 0.00199258 to 0.00199258
Heightened Def Con from 0.00199259 to 0.00199259
Heightened Def Con from 0.00199782 to 0.00199782
Heightened Def Con from 0.00199782 to 0.00199782
Heightened Def Con from 0.00200257 to 0.00200257
Heightened Def Con from 0.00200257 to 0.00200258
Heightened Def Con from 0.00200783 to 0.00200783
Heightened Def Con from 0.00201256 to 0.00201256
Heightened Def Con from 0.00201256 to 0.00201257
Heightened Def Con from 0.00201784 to 0.00201784
Heightened Def Con from 0.00201784 to 0.00201784
Heightened Def Con from 0.00202254 to 0.00202255
Heightened Def Con from 0.00202255 to 0.00202256
Heightened Def Con from 0.00202785 to 0.00202785
Heightened Def Con from 0.00203253 to 0.00203254
Heightened Def Con from 0.00203254 to 0.00203255
Heightened Def Con from 0.00203786 to 0.00203786
Heightened Def Con from 0.00203786 to 0.00203786
Heightened Def Con from 0.00204252 to 0.00204253
Heightened Def Con from 0.00204253 to 0.00204254
Heightened Def Con from 0.00204787 to 0.00204788
Heightened Def Con from 0.00205251 to 0.00205252
Heightened Def Con from 0.00205252 to 0.00205252
Heightened Def Con from 0.00205788 to 0.00205788
Heightened Def Con from 0.00205788 to 0.00205789
Heightened Def Con from 0.0020625 to 0.00206251
Heightened Def Con from 0.00206251 to 0.00206251
Heightened Def Con from 0.00206789 to 0.0020679
Heightened Def Con from 0.00207249 to 0.00207249
Heightened Def Con from 0.0020725 to 0.0020725
Heightened Def Con from 0.0020779 to 0.0020779
Heightened Def Con from 0.0020779 to 0.00207791
Heightened Def Con from 0.00208248 to 0.00208248
Heightened Def Con from 0.00208249 to 0.00208249
Heightened Def Con from 0.00208792 to 0.00208792
Heightened Def Con from 0.00209247 to 0.00209247
Heightened Def Con from 0.00209248 to 0.00209248
Heightened Def Con from 0.00209793 to 0.00209793
Heightened Def Con from 0.00209793 to 0.00209793
Heightened Def Con from 0.00210246 to 0.00210246
Heightened Def Con from 0.00210247 to 0.00210247
Heightened Def Con from 0.00210794 to 0.00210794
Heightened Def Con from 0.00211245 to 0.00211245
Heightened Def Con from 0.00211246 to 0.00211246
Heightened Def Con from 0.00211795 to 0.00211795
Heightened Def Con from 0.00211795 to 0.00211795
Heightened Def Con from 0.00212244 to 0.00212244
Heightened Def Con from 0.00212245 to 0.00212245
Heightened Def Con from 0.00212796 to 0.00212796
Heightened Def Con from 0.00213243 to 0.00213243
Heightened Def Con from 0.00213244 to 0.00213244
Heightened Def Con from 0.00213796 to 0.00213796
Heightened Def Con from 0.00213797 to 0.00213797
Heightened Def Con from 0.00213797 to 0.00213797
Heightened Def Con from 0.00214242 to 0.00214242
Heightened Def Con from 0.00214243 to 0.00214243
Heightened Def Con from 0.00214798 to 0.00214798
Heightened Def Con from 0.00215241 to 0.00215241
Heightened Def Con from 0.00215241 to 0.00215242
Heightened Def Con from 0.00215799 to 0.00215799
Heightened Def Con from 0.00215799 to 0.00215799
Heightened Def Con from 0.0021624 to 0.0021624
Heightened Def Con from 0.0021624 to 0.00216241
Heightened Def Con from 0.002168 to 0.002168
Heightened Def Con from 0.00217239 to 0.00217239
Heightened Def Con from 0.00217239 to 0.0021724
Heightened Def Con from 0.00217801 to 0.00217801
Heightened Def Con from 0.00217801 to 0.00217801
Heightened Def Con from 0.00218237 to 0.00218238
Heightened Def Con from 0.00218238 to 0.00218239
Heightened Def Con from 0.00218802 to 0.00218802
Heightened Def Con from 0.00219236 to 0.00219237
Heightened Def Con from 0.00219237 to 0.00219238
Heightened Def Con from 0.00219803 to 0.00219803
Heightened Def Con from 0.00219803 to 0.00219803
Heightened Def Con from 0.00220235 to 0.00220236
Heightened Def Con from 0.00220236 to 0.00220237
Heightened Def Con from 0.00220804 to 0.00220805
Heightened Def Con from 0.00221234 to 0.00221235
Heightened Def Con from 0.00221235 to 0.00221236
Heightened Def Con from 0.00221805 to 0.00221805
Heightened Def Con from 0.00221805 to 0.00221806
Heightened Def Con from 0.00222233 to 0.00222234
Heightened Def Con from 0.00222234 to 0.00222235
Heightened Def Con from 0.00222806 to 0.00222807
Heightened Def Con from 0.00223232 to 0.00223233
Heightened Def Con from 0.00223233 to 0.00223234
Heightened Def Con from 0.00223807 to 0.00223807
Heightened Def Con from 0.00223807 to 0.00223808
Heightened Def Con from 0.00224231 to 0.00224232
Heightened Def Con from 0.00224232 to 0.00224233
Heightened Def Con from 0.00224808 to 0.00224809
Heightened Def Con from 0.0022523 to 0.00225231
Heightened Def Con from 0.00225231 to 0.00225232
Heightened Def Con from 0.00225809 to 0.00225809
Heightened Def Con from 0.00225809 to 0.0022581
Heightened Def Con from 0.00226229 to 0.0022623
Heightened Def Con from 0.0022623 to 0.00226231
Heightened Def Con from 0.0022681 to 0.00226811
Heightened Def Con from 0.00227228 to 0.00227229
Heightened Def Con from 0.00227229 to 0.0022723
Heightened Def Con from 0.00227811 to 0.00227811
Heightened Def Con from 0.00227811 to 0.00227812
Heightened Def Con from 0.00228227 to 0.00228228
Heightened Def Con from 0.00228228 to 0.00228229
Heightened Def Con from 0.00228812 to 0.00228813
Heightened Def Con from 0.00229226 to 0.00229227
Heightened Def Con from 0.00229227 to 0.00229227
Heightened Def Con from 0.00229813 to 0.00229813
Heightened Def Con from 0.00229813 to 0.00229814
Heightened Def Con from 0.00230225 to 0.00230226
Heightened Def Con from 0.00230226 to 0.00230226
Heightened Def Con from 0.00230814 to 0.00230815
Heightened Def Con from 0.00231224 to 0.00231225
Heightened Def Con from 0.00231225 to 0.00231225
Heightened Def Con from 0.00231815 to 0.00231815
Heightened Def Con from 0.00231815 to 0.00231816
Heightened Def Con from 0.00232223 to 0.00232224
Heightened Def Con from 0.00232224 to 0.00232224
Heightened Def Con from 0.00232816 to 0.00232817
Heightened Def Con from 0.00233222 to 0.00233223
Heightened Def Con from 0.00233223 to 0.00233224
Heightened Def Con from 0.00233817 to 0.00233817
Heightened Def Con from 0.00233817 to 0.00233818
Heightened Def Con from 0.00234221 to 0.00234222
Heightened Def Con from 0.00234222 to 0.00234222
Heightened Def Con from 0.00234818 to 0.00234819
Heightened Def Con from 0.0023522 to 0.00235221
Heightened Def Con from 0.00235221 to 0.00235221
Heightened Def Con from 0.00235819 to 0.00235819
Heightened Def Con from 0.00235819 to 0.0023582
Heightened Def Con from 0.00236219 to 0.0023622
Heightened Def Con from 0.0023622 to 0.00236221
Heightened Def Con from 0.0023682 to 0.00236821
Heightened Def Con from 0.00237218 to 0.00237219
Heightened Def Con from 0.00237219 to 0.00237219
Heightened Def Con from 0.00237821 to 0.00237821
Heightened Def Con from 0.00237821 to 0.00237822
Heightened Def Con from 0.00238217 to 0.00238218
Heightened Def Con from 0.00238218 to 0.00238219
Heightened Def Con from 0.00238822 to 0.00238823
Heightened Def Con from 0.00239216 to 0.00239217
Heightened Def Con from 0.00239217 to 0.00239218
Heightened Def Con from 0.00239823 to 0.00239823
Heightened Def Con from 0.00239823 to 0.00239824
Heightened Def Con from 0.00240215 to 0.00240216
Heightened Def Con from 0.00240216 to 0.00240217
Heightened Def Con from 0.00240824 to 0.00240825
Heightened Def Con from 0.00241214 to 0.00241215
Heightened Def Con from 0.00241215 to 0.00241216
Heightened Def Con from 0.00241825 to 0.00241825
Heightened Def Con from 0.00241825 to 0.00241826
Heightened Def Con from 0.00242213 to 0.00242214
Heightened Def Con from 0.00242214 to 0.00242215
Heightened Def Con from 0.00242826 to 0.00242827
Heightened Def Con from 0.00243212 to 0.00243213
Heightened Def Con from 0.00243213 to 0.00243214
Heightened Def Con from 0.00243827 to 0.00243827
Heightened Def Con from 0.00243827 to 0.00243828
Heightened Def Con from 0.00244212 to 0.00244212
Heightened Def Con from 0.00244212 to 0.00244213
Heightened Def Con from 0.00244828 to 0.00244829
Heightened Def Con from 0.0024521 to 0.00245211
Heightened Def Con from 0.00245211 to 0.00245212
Heightened Def Con from 0.00245829 to 0.00245829
Heightened Def Con from 0.00245829 to 0.00245829
Heightened Def Con from 0.00246209 to 0.0024621
Heightened Def Con from 0.0024621 to 0.00246211
Heightened Def Con from 0.0024683 to 0.00246831
Heightened Def Con from 0.00247209 to 0.00247209
Heightened Def Con from 0.00247209 to 0.0024721
Heightened Def Con from 0.00247831 to 0.00247831
Heightened Def Con from 0.00247831 to 0.00247831
Heightened Def Con from 0.00248208 to 0.00248208
Heightened Def Con from 0.00248208 to 0.00248209
Heightened Def Con from 0.00248832 to 0.00248832
Heightened Def Con from 0.00249207 to 0.00249207
Heightened Def Con from 0.00249208 to 0.00249208
Heightened Def Con from 0.00249833 to 0.00249833
Heightened Def Con from 0.00249833 to 0.00249833
Heightened Def Con from 0.00250206 to 0.00250206
Heightened Def Con from 0.00250207 to 0.00250207
Heightened Def Con from 0.00250834 to 0.00250834
Heightened Def Con from 0.00251205 to 0.00251205
Heightened Def Con from 0.00251206 to 0.00251206
Heightened Def Con from 0.00251835 to 0.00251835
Heightened Def Con from 0.00251835 to 0.00251835
Heightened Def Con from 0.00252204 to 0.00252204
Heightened Def Con from 0.00252205 to 0.00252205
Heightened Def Con from 0.00252836 to 0.00252836
Heightened Def Con from 0.00253203 to 0.00253203
Heightened Def Con from 0.00253204 to 0.00253204
Heightened Def Con from 0.00253837 to 0.00253837
Heightened Def Con from 0.00253837 to 0.00253837
Heightened Def Con from 0.00254202 to 0.00254202
Heightened Def Con from 0.00254203 to 0.00254203
Heightened Def Con from 0.00254838 to 0.00254838
Heightened Def Con from 0.00255201 to 0.00255201
Heightened Def Con from 0.00255202 to 0.00255202
Heightened Def Con from 0.00255838 to 0.00255838
Heightened Def Con from 0.00255838 to 0.00255839
Heightened Def Con from 0.002562 to 0.002562
Heightened Def Con from 0.00256201 to 0.00256201
Heightened Def Con from 0.00256839 to 0.0025684
Heightened Def Con from 0.00257199 to 0.002572
Heightened Def Con from 0.002572 to 0.002572
Heightened Def Con from 0.0025784 to 0.0025784
Heightened Def Con from 0.0025784 to 0.00257841
Heightened Def Con from 0.00258198 to 0.00258199
Heightened Def Con from 0.00258199 to 0.00258199
Heightened Def Con from 0.00258841 to 0.00258842
Heightened Def Con from 0.00259197 to 0.00259198
Heightened Def Con from 0.00259198 to 0.00259199
Heightened Def Con from 0.00259842 to 0.00259842
Heightened Def Con from 0.00259842 to 0.00259843
Heightened Def Con from 0.00260196 to 0.00260197
Heightened Def Con from 0.00260197 to 0.00260197
Heightened Def Con from 0.00260843 to 0.00260844
Heightened Def Con from 0.00261195 to 0.00261196
Heightened Def Con from 0.00261196 to 0.00261197
Heightened Def Con from 0.00261844 to 0.00261844
Heightened Def Con from 0.00261844 to 0.00261845
Heightened Def Con from 0.00262195 to 0.00262195
Heightened Def Con from 0.00262195 to 0.00262196
Heightened Def Con from 0.00262845 to 0.00262845
Heightened Def Con from 0.00263194 to 0.00263194
Heightened Def Con from 0.00263195 to 0.00263195
Heightened Def Con from 0.00263846 to 0.00263846
Heightened Def Con from 0.00263846 to 0.00263846
Heightened Def Con from 0.00264193 to 0.00264193
Heightened Def Con from 0.00264194 to 0.00264194
Heightened Def Con from 0.00264847 to 0.00264847
Heightened Def Con from 0.00265192 to 0.00265192
Heightened Def Con from 0.00265193 to 0.00265193
Heightened Def Con from 0.00265848 to 0.00265848
Heightened Def Con from 0.00265848 to 0.00265848
Heightened Def Con from 0.00266191 to 0.00266191
Heightened Def Con from 0.00266192 to 0.00266192
Heightened Def Con from 0.00266849 to 0.00266849
Heightened Def Con from 0.0026719 to 0.0026719
Heightened Def Con from 0.00267191 to 0.00267191
Heightened Def Con from 0.00267849 to 0.00267849
Heightened Def Con from 0.0026785 to 0.0026785
Heightened Def Con from 0.00268189 to 0.0026819
Heightened Def Con from 0.0026819 to 0.0026819
Heightened Def Con from 0.0026885 to 0.00268851
Heightened Def Con from 0.00269188 to 0.00269189
Heightened Def Con from 0.00269189 to 0.00269189
Heightened Def Con from 0.00269851 to 0.00269851
Heightened Def Con from 0.00269851 to 0.00269852
Heightened Def Con from 0.00270187 to 0.00270188
Heightened Def Con from 0.00270188 to 0.00270188
Heightened Def Con from 0.00270188 to 0.00270189
Heightened Def Con from 0.00270852 to 0.00270853
Heightened Def Con from 0.00271186 to 0.00271187
Heightened Def Con from 0.00271187 to 0.00271188
Heightened Def Con from 0.00271853 to 0.00271853
Heightened Def Con from 0.00271853 to 0.00271853
Heightened Def Con from 0.00272186 to 0.00272186
Heightened Def Con from 0.00272186 to 0.00272187
Heightened Def Con from 0.00272854 to 0.00272854
Heightened Def Con from 0.00273185 to 0.00273185
Heightened Def Con from 0.00273186 to 0.00273186
Heightened Def Con from 0.00273855 to 0.00273855
Heightened Def Con from 0.00273855 to 0.00273855
Heightened Def Con from 0.00274184 to 0.00274184
Heightened Def Con from 0.00274185 to 0.00274185
Heightened Def Con from 0.00274856 to 0.00274856
Heightened Def Con from 0.00275183 to 0.00275183
Heightened Def Con from 0.00275184 to 0.00275184
Heightened Def Con from 0.00275856 to 0.00275856
Heightened Def Con from 0.00275857 to 0.00275857
Heightened Def Con from 0.00276182 to 0.00276182
Heightened Def Con from 0.00276183 to 0.00276183
Heightened Def Con from 0.00276857 to 0.00276858
Heightened Def Con from 0.00277181 to 0.00277182
Heightened Def Con from 0.00277182 to 0.00277182
Heightened Def Con from 0.00277858 to 0.00277858
Heightened Def Con from 0.00277858 to 0.00277859
Heightened Def Con from 0.0027818 to 0.00278181
Heightened Def Con from 0.00278181 to 0.00278182
Heightened Def Con from 0.00278859 to 0.0027886
Heightened Def Con from 0.0027918 to 0.0027918
Heightened Def Con from 0.0027918 to 0.00279181
Heightened Def Con from 0.0027986 to 0.0027986
Heightened Def Con from 0.0027986 to 0.00279861
Heightened Def Con from 0.00280179 to 0.00280179
Heightened Def Con from 0.00280179 to 0.0028018
Heightened Def Con from 0.00280861 to 0.00280861
Heightened Def Con from 0.00281178 to 0.00281178
Heightened Def Con from 0.00281179 to 0.00281179
Heightened Def Con from 0.00281862 to 0.00281862
Heightened Def Con from 0.00281862 to 0.00281862
Heightened Def Con from 0.00282177 to 0.00282177
Heightened Def Con from 0.00282178 to 0.00282178
Heightened Def Con from 0.00282863 to 0.00282863
Heightened Def Con from 0.00283176 to 0.00283176
Heightened Def Con from 0.00283177 to 0.00283177
Heightened Def Con from 0.00283863 to 0.00283863
Heightened Def Con from 0.00283863 to 0.00283864
Heightened Def Con from 0.00284175 to 0.00284176
Heightened Def Con from 0.00284176 to 0.00284177
Heightened Def Con from 0.00284864 to 0.00284865
Heightened Def Con from 0.00285174 to 0.00285175
Heightened Def Con from 0.00285175 to 0.00285176
Heightened Def Con from 0.00285865 to 0.00285865
Heightened Def Con from 0.00285865 to 0.00285866
Heightened Def Con from 0.00286174 to 0.00286174
Heightened Def Con from 0.00286174 to 0.00286175
Heightened Def Con from 0.00286866 to 0.00286867
Heightened Def Con from 0.00287173 to 0.00287173
Heightened Def Con from 0.00287173 to 0.00287174
Heightened Def Con from 0.00287867 to 0.00287867
Heightened Def Con from 0.00287867 to 0.00287867
Heightened Def Con from 0.00288172 to 0.00288172
Heightened Def Con from 0.00288173 to 0.00288173
Heightened Def Con from 0.00288868 to 0.00288868
Heightened Def Con from 0.00289171 to 0.00289172
Heightened Def Con from 0.00289172 to 0.00289172
Heightened Def Con from 0.00289868 to 0.00289868
Heightened Def Con from 0.00289868 to 0.00289869
Heightened Def Con from 0.0029017 to 0.00290171
Heightened Def Con from 0.00290171 to 0.00290172
Heightened Def Con from 0.00290869 to 0.0029087
Heightened Def Con from 0.00291169 to 0.0029117
Heightened Def Con from 0.0029117 to 0.00291171
Heightened Def Con from 0.0029187 to 0.0029187
Heightened Def Con from 0.0029187 to 0.00291871
Heightened Def Con from 0.00292169 to 0.00292169
Heightened Def Con from 0.00292169 to 0.0029217
Heightened Def Con from 0.00292871 to 0.00292871
Heightened Def Con from 0.00293168 to 0.00293168
Heightened Def Con from 0.00293169 to 0.00293169
Heightened Def Con from 0.00293872 to 0.00293872
Heightened Def Con from 0.00293872 to 0.00293872
Heightened Def Con from 0.00294167 to 0.00294167
Heightened Def Con from 0.00294168 to 0.00294168
Heightened Def Con from 0.00294872 to 0.00294873
Heightened Def Con from 0.00295166 to 0.00295167
Heightened Def Con from 0.00295167 to 0.00295167
Heightened Def Con from 0.00295873 to 0.00295873
Heightened Def Con from 0.00295873 to 0.00295874
Heightened Def Con from 0.00296165 to 0.00296166
Heightened Def Con from 0.00296166 to 0.00296167
Heightened Def Con from 0.00296874 to 0.00296875
Heightened Def Con from 0.00297165 to 0.00297165
Heightened Def Con from 0.00297165 to 0.00297166
Heightened Def Con from 0.00297875 to 0.00297875
Heightened Def Con from 0.00297875 to 0.00297875
Heightened Def Con from 0.00298164 to 0.00298164
Heightened Def Con from 0.00298165 to 0.00298165
Heightened Def Con from 0.00298876 to 0.00298876
Heightened Def Con from 0.00299163 to 0.00299163
Heightened Def Con from 0.00299164 to 0.00299164
Heightened Def Con from 0.00299876 to 0.00299877
Heightened Def Con from 0.00299877 to 0.00299877
Heightened Def Con from 0.00300162 to 0.00300163
Heightened Def Con from 0.00300163 to 0.00300163
Heightened Def Con from 0.00300877 to 0.00300878
Heightened Def Con from 0.00301161 to 0.00301162
Heightened Def Con from 0.00301162 to 0.00301163
Heightened Def Con from 0.00301878 to 0.00301879
Heightened Def Con from 0.00302161 to 0.00302161
Heightened Def Con from 0.00302161 to 0.00302162
Heightened Def Con from 0.00302162 to 0.00302162
Heightened Def Con from 0.00302879 to 0.00302879
Heightened Def Con from 0.0030316 to 0.0030316
Heightened Def Con from 0.00303161 to 0.00303161
Heightened Def Con from 0.00303879 to 0.0030388
Heightened Def Con from 0.00304159 to 0.00304159
Heightened Def Con from 0.0030416 to 0.0030416
Heightened Def Con from 0.0030488 to 0.00304881
Heightened Def Con from 0.00305158 to 0.00305159
Heightened Def Con from 0.00305159 to 0.0030516
Heightened Def Con from 0.00305881 to 0.00305882
Heightened Def Con from 0.00306157 to 0.00306158
Heightened Def Con from 0.00306158 to 0.00306159
Heightened Def Con from 0.00306882 to 0.00306882
Heightened Def Con from 0.00307157 to 0.00307157
Heightened Def Con from 0.00307158 to 0.00307158
Heightened Def Con from 0.00307883 to 0.00307883
Heightened Def Con from 0.00308156 to 0.00308156
Heightened Def Con from 0.00308157 to 0.00308157
Heightened Def Con from 0.00308884 to 0.00308884
Heightened Def Con from 0.00309155 to 0.00309156
Heightened Def Con from 0.00309156 to 0.00309157
Heightened Def Con from 0.00309884 to 0.00309885
Heightened Def Con from 0.00310154 to 0.00310155
Heightened Def Con from 0.00310155 to 0.00310156
Heightened Def Con from 0.00310885 to 0.00310885
Heightened Def Con from 0.00311154 to 0.00311154
Heightened Def Con from 0.00311155 to 0.00311155
Heightened Def Con from 0.00311886 to 0.00311886
Heightened Def Con from 0.00312153 to 0.00312153
Heightened Def Con from 0.00312154 to 0.00312154
Heightened Def Con from 0.00312886 to 0.00312887
Heightened Def Con from 0.00313152 to 0.00313153
Heightened Def Con from 0.00313153 to 0.00313154
Heightened Def Con from 0.00313887 to 0.00313888
Heightened Def Con from 0.00314152 to 0.00314152
Heightened Def Con from 0.00314152 to 0.00314152
Heightened Def Con from 0.00314152 to 0.00314153
Heightened Def Con from 0.00314888 to 0.00314889
Heightened Def Con from 0.00315151 to 0.00315151
Heightened Def Con from 0.00315152 to 0.00315152
Heightened Def Con from 0.00315889 to 0.00315889
Heightened Def Con from 0.0031615 to 0.0031615
Heightened Def Con from 0.00316151 to 0.00316151
Heightened Def Con from 0.00316889 to 0.0031689
Heightened Def Con from 0.00317149 to 0.0031715
Heightened Def Con from 0.0031715 to 0.00317151
Heightened Def Con from 0.0031789 to 0.00317891
Heightened Def Con from 0.00318149 to 0.00318149
Heightened Def Con from 0.00318149 to 0.0031815
Heightened Def Con from 0.00318891 to 0.00318891
Heightened Def Con from 0.00319148 to 0.00319148
Heightened Def Con from 0.00319149 to 0.00319149
Heightened Def Con from 0.00319892 to 0.00319892
Heightened Def Con from 0.00320147 to 0.00320148
Heightened Def Con from 0.00320148 to 0.00320148
Heightened Def Con from 0.00320892 to 0.00320893
Heightened Def Con from 0.00321146 to 0.00321147
Heightened Def Con from 0.00321147 to 0.00321148
Heightened Def Con from 0.00321893 to 0.00321893
Heightened Def Con from 0.00322146 to 0.00322146
Heightened Def Con from 0.00322146 to 0.00322147
Heightened Def Con from 0.00322894 to 0.00322894
Heightened Def Con from 0.00323145 to 0.00323145
Heightened Def Con from 0.00323146 to 0.00323146
Heightened Def Con from 0.00323894 to 0.00323895
Heightened Def Con from 0.00324144 to 0.00324145
Heightened Def Con from 0.00324145 to 0.00324146
Heightened Def Con from 0.00324895 to 0.00324896
Heightened Def Con from 0.00325144 to 0.00325144
Heightened Def Con from 0.00325144 to 0.00325145
Heightened Def Con from 0.00325896 to 0.00325896
Heightened Def Con from 0.00326143 to 0.00326143
Heightened Def Con from 0.00326144 to 0.00326144
Heightened Def Con from 0.00326897 to 0.00326897
Heightened Def Con from 0.00327142 to 0.00327143
Heightened Def Con from 0.00327143 to 0.00327143
Heightened Def Con from 0.00327897 to 0.00327898
Heightened Def Con from 0.00328141 to 0.00328142
Heightened Def Con from 0.00328142 to 0.00328143
Heightened Def Con from 0.00328898 to 0.00328898
Heightened Def Con from 0.00329141 to 0.00329141
Heightened Def Con from 0.00329142 to 0.00329142
Heightened Def Con from 0.00329899 to 0.00329899
Heightened Def Con from 0.0033014 to 0.00330141
Heightened Def Con from 0.00330141 to 0.00330141
Heightened Def Con from 0.00330899 to 0.003309
Heightened Def Con from 0.00331139 to 0.0033114
Heightened Def Con from 0.0033114 to 0.00331141
Heightened Def Con from 0.00331899 to 0.00331899
Heightened Def Con from 0.003319 to 0.003319
Heightened Def Con from 0.00332139 to 0.00332139
Heightened Def Con from 0.0033214 to 0.0033214
Heightened Def Con from 0.00332901 to 0.00332901
Heightened Def Con from 0.00333138 to 0.00333139
Heightened Def Con from 0.00333139 to 0.00333139
Heightened Def Con from 0.003339 to 0.00333901
Heightened Def Con from 0.00333901 to 0.00333902
Heightened Def Con from 0.00334137 to 0.00334138
Heightened Def Con from 0.00334138 to 0.00334139
Heightened Def Con from 0.00334902 to 0.00334902
Heightened Def Con from 0.00335137 to 0.00335137
Heightened Def Con from 0.00335138 to 0.00335138
Heightened Def Con from 0.00335903 to 0.00335903
Heightened Def Con from 0.00336136 to 0.00336136
Heightened Def Con from 0.00336137 to 0.00336137
Heightened Def Con from 0.00336903 to 0.00336904
Heightened Def Con from 0.00337135 to 0.00337136
Heightened Def Con from 0.00337136 to 0.00337137
Heightened Def Con from 0.00337904 to 0.00337904
Heightened Def Con from 0.00338135 to 0.00338135
Heightened Def Con from 0.00338136 to 0.00338136
Heightened Def Con from 0.00338905 to 0.00338905
Heightened Def Con from 0.00339134 to 0.00339135
Heightened Def Con from 0.00339135 to 0.00339135
Heightened Def Con from 0.00339905 to 0.00339906
Heightened Def Con from 0.00340133 to 0.00340134
Heightened Def Con from 0.00340134 to 0.00340135
Heightened Def Con from 0.00340906 to 0.00340906
Heightened Def Con from 0.00341133 to 0.00341133
Heightened Def Con from 0.00341134 to 0.00341134
Heightened Def Con from 0.00341906 to 0.00341907
Heightened Def Con from 0.00342132 to 0.00342133
Heightened Def Con from 0.00342133 to 0.00342134
Heightened Def Con from 0.00342907 to 0.00342908
Heightened Def Con from 0.00343132 to 0.00343132
Heightened Def Con from 0.00343132 to 0.00343133
Heightened Def Con from 0.00343908 to 0.00343908
Heightened Def Con from 0.00344131 to 0.00344131
Heightened Def Con from 0.00344132 to 0.00344132
Heightened Def Con from 0.00344909 to 0.00344909
Heightened Def Con from 0.0034513 to 0.00345131
Heightened Def Con from 0.00345131 to 0.00345132
Heightened Def Con from 0.00345908 to 0.00345908
Heightened Def Con from 0.00345909 to 0.0034591
Heightened Def Con from 0.0034613 to 0.0034613
Heightened Def Con from 0.0034613 to 0.00346131
Heightened Def Con from 0.0034691 to 0.0034691
Heightened Def Con from 0.00347129 to 0.00347129
Heightened Def Con from 0.0034713 to 0.0034713
Heightened Def Con from 0.0034791 to 0.0034791
Heightened Def Con from 0.0034791 to 0.00347911
Heightened Def Con from 0.00348128 to 0.00348129
Heightened Def Con from 0.00348129 to 0.0034813
Heightened Def Con from 0.00348911 to 0.00348911
Heightened Def Con from 0.00349128 to 0.00349128
Heightened Def Con from 0.00349129 to 0.00349129
Heightened Def Con from 0.00349912 to 0.00349912
Heightened Def Con from 0.00350127 to 0.00350128
Heightened Def Con from 0.00350128 to 0.00350128
Heightened Def Con from 0.00350912 to 0.00350913
Heightened Def Con from 0.00351127 to 0.00351127
Heightened Def Con from 0.00351127 to 0.00351128
Heightened Def Con from 0.00351913 to 0.00351913
Heightened Def Con from 0.00352126 to 0.00352126
Heightened Def Con from 0.00352127 to 0.00352127
Heightened Def Con from 0.00352913 to 0.00352914
Heightened Def Con from 0.00353125 to 0.00353126
Heightened Def Con from 0.00353126 to 0.00353127
Heightened Def Con from 0.00353914 to 0.00353915
Heightened Def Con from 0.00354125 to 0.00354125
Heightened Def Con from 0.00354126 to 0.00354126
Heightened Def Con from 0.00354915 to 0.00354915
Heightened Def Con from 0.00355124 to 0.00355125
Heightened Def Con from 0.00355125 to 0.00355126
Heightened Def Con from 0.00355915 to 0.00355916
Heightened Def Con from 0.00356124 to 0.00356124
Heightened Def Con from 0.00356124 to 0.00356125
Heightened Def Con from 0.00356916 to 0.00356916
Heightened Def Con from 0.00357123 to 0.00357123
Heightened Def Con from 0.00357124 to 0.00357124
Heightened Def Con from 0.00357916 to 0.00357917
Heightened Def Con from 0.00358122 to 0.00358123
Heightened Def Con from 0.00358123 to 0.00358124
Heightened Def Con from 0.00358917 to 0.00358918
Heightened Def Con from 0.00359122 to 0.00359122
Heightened Def Con from 0.00359123 to 0.00359123
Heightened Def Con from 0.00359917 to 0.00359918
Heightened Def Con from 0.00360121 to 0.00360122
Heightened Def Con from 0.00360122 to 0.00360123
Heightened Def Con from 0.00360918 to 0.00360919
Heightened Def Con from 0.00361121 to 0.00361121
Heightened Def Con from 0.00361122 to 0.00361122
Heightened Def Con from 0.00361919 to 0.00361919
Heightened Def Con from 0.0036212 to 0.00362121
Heightened Def Con from 0.00362121 to 0.00362121
Heightened Def Con from 0.00362919 to 0.0036292
Heightened Def Con from 0.0036312 to 0.0036312
Heightened Def Con from 0.0036312 to 0.00363121
Heightened Def Con from 0.0036392 to 0.0036392
Heightened Def Con from 0.00364119 to 0.00364119
Heightened Def Con from 0.0036412 to 0.0036412
Heightened Def Con from 0.0036492 to 0.00364921
Heightened Def Con from 0.00365119 to 0.00365119
Heightened Def Con from 0.00365119 to 0.0036512
Heightened Def Con from 0.00365921 to 0.00365921
Heightened Def Con from 0.00366118 to 0.00366118
Heightened Def Con from 0.00366119 to 0.00366119
Heightened Def Con from 0.00366921 to 0.00366922
Heightened Def Con from 0.00367117 to 0.00367118
Heightened Def Con from 0.00367118 to 0.00367119
Heightened Def Con from 0.00367922 to 0.00367922
Heightened Def Con from 0.00368117 to 0.00368117
Heightened Def Con from 0.00368118 to 0.00368118
Heightened Def Con from 0.00368923 to 0.00368923
Heightened Def Con from 0.00369116 to 0.00369117
Heightened Def Con from 0.00369117 to 0.00369118
Heightened Def Con from 0.00369923 to 0.00369923
Heightened Def Con from 0.00370116 to 0.00370116
Heightened Def Con from 0.00370117 to 0.00370117
Heightened Def Con from 0.00370924 to 0.00370924
Heightened Def Con from 0.00371115 to 0.00371116
Heightened Def Con from 0.00371116 to 0.00371117
Heightened Def Con from 0.00371924 to 0.00371925
Heightened Def Con from 0.00372115 to 0.00372115
Heightened Def Con from 0.00372116 to 0.00372116
Heightened Def Con from 0.00372116 to 0.00372116
Heightened Def Con from 0.00372925 to 0.00372925
Heightened Def Con from 0.00373114 to 0.00373115
Heightened Def Con from 0.00373115 to 0.00373115
Heightened Def Con from 0.00373925 to 0.00373926
Heightened Def Con from 0.00374114 to 0.00374114
Heightened Def Con from 0.00374115 to 0.00374115
Heightened Def Con from 0.00374926 to 0.00374926
Heightened Def Con from 0.00375113 to 0.00375114
Heightened Def Con from 0.00375114 to 0.00375114
Heightened Def Con from 0.00375926 to 0.00375927
Heightened Def Con from 0.00376113 to 0.00376113
Heightened Def Con from 0.00376114 to 0.00376114
Heightened Def Con from 0.00376927 to 0.00376927
Heightened Def Con from 0.00377112 to 0.00377113
Heightened Def Con from 0.00377113 to 0.00377113
Heightened Def Con from 0.00377927 to 0.00377928
Heightened Def Con from 0.00378112 to 0.00378112
Heightened Def Con from 0.00378113 to 0.00378113
Heightened Def Con from 0.00378928 to 0.00378928
Heightened Def Con from 0.00379111 to 0.00379112
Heightened Def Con from 0.00379112 to 0.00379112
Heightened Def Con from 0.00379928 to 0.00379929
Heightened Def Con from 0.00380111 to 0.00380111
Heightened Def Con from 0.00380112 to 0.00380112
Heightened Def Con from 0.00380929 to 0.00380929
Heightened Def Con from 0.0038111 to 0.00381111
Heightened Def Con from 0.00381111 to 0.00381111
Heightened Def Con from 0.00381929 to 0.0038193
Heightened Def Con from 0.0038211 to 0.0038211
Heightened Def Con from 0.00382111 to 0.00382111
Heightened Def Con from 0.0038293 to 0.0038293
Heightened Def Con from 0.00383109 to 0.0038311
Heightened Def Con from 0.0038311 to 0.0038311
Heightened Def Con from 0.0038393 to 0.00383931
Heightened Def Con from 0.00384109 to 0.00384109
Heightened Def Con from 0.0038411 to 0.0038411
Heightened Def Con from 0.00384931 to 0.00384931
Heightened Def Con from 0.00385108 to 0.00385109
Heightened Def Con from 0.00385109 to 0.0038511
Heightened Def Con from 0.00385931 to 0.00385932
Heightened Def Con from 0.00386108 to 0.00386108
Heightened Def Con from 0.00386109 to 0.00386109
Heightened Def Con from 0.00386932 to 0.00386932
Heightened Def Con from 0.00387107 to 0.00387108
Heightened Def Con from 0.00387108 to 0.00387109
Heightened Def Con from 0.00387932 to 0.00387932
Heightened Def Con from 0.00388107 to 0.00388107
Heightened Def Con from 0.00388108 to 0.00388108
Heightened Def Con from 0.00388108 to 0.00388108
Heightened Def Con from 0.00388932 to 0.00388933
Heightened Def Con from 0.00389106 to 0.00389107
Heightened Def Con from 0.00389107 to 0.00389108
Heightened Def Con from 0.00389933 to 0.00389933
Heightened Def Con from 0.00390106 to 0.00390106
Heightened Def Con from 0.00390107 to 0.00390107
Heightened Def Con from 0.00390933 to 0.00390934
Heightened Def Con from 0.00391105 to 0.00391106
Heightened Def Con from 0.00391106 to 0.00391107
Heightened Def Con from 0.00391934 to 0.00391934
Heightened Def Con from 0.00392105 to 0.00392105
Heightened Def Con from 0.00392106 to 0.00392106
Heightened Def Con from 0.00392934 to 0.00392935
Heightened Def Con from 0.00393105 to 0.00393105
Heightened Def Con from 0.00393105 to 0.00393106
Heightened Def Con from 0.00393935 to 0.00393935
Heightened Def Con from 0.00394104 to 0.00394105
Heightened Def Con from 0.00394105 to 0.00394105
Heightened Def Con from 0.00394935 to 0.00394936
Heightened Def Con from 0.00395104 to 0.00395104
Heightened Def Con from 0.00395105 to 0.00395105
Heightened Def Con from 0.00395935 to 0.00395936
Heightened Def Con from 0.00396103 to 0.00396104
Heightened Def Con from 0.00396104 to 0.00396105
Heightened Def Con from 0.00396936 to 0.00396937
Heightened Def Con from 0.00397103 to 0.00397103
Heightened Def Con from 0.00397104 to 0.00397104
Heightened Def Con from 0.00397936 to 0.00397937
Heightened Def Con from 0.00398102 to 0.00398103
Heightened Def Con from 0.00398103 to 0.00398103
Heightened Def Con from 0.00398103 to 0.00398103
Heightened Def Con from 0.00398104 to 0.00398104
Heightened Def Con from 0.00398937 to 0.00398937
Heightened Def Con from 0.00399102 to 0.00399102
Heightened Def Con from 0.00399103 to 0.00399103
Heightened Def Con from 0.00399937 to 0.00399938
Heightened Def Con from 0.00400102 to 0.00400102
Heightened Def Con from 0.00400102 to 0.00400103
Heightened Def Con from 0.00400938 to 0.00400938
Heightened Def Con from 0.00401101 to 0.00401102
Heightened Def Con from 0.00401102 to 0.00401102
Heightened Def Con from 0.00401938 to 0.00401939
Heightened Def Con from 0.00402101 to 0.00402101
Heightened Def Con from 0.00402102 to 0.00402102
Heightened Def Con from 0.00402939 to 0.00402939
Heightened Def Con from 0.004031 to 0.00403101
Heightened Def Con from 0.00403101 to 0.00403101
Heightened Def Con from 0.00403939 to 0.00403939
Heightened Def Con from 0.004041 to 0.004041
Heightened Def Con from 0.00404101 to 0.00404101
Heightened Def Con from 0.00404939 to 0.0040494
Heightened Def Con from 0.004051 to 0.004051
Heightened Def Con from 0.004051 to 0.00405101
Heightened Def Con from 0.0040594 to 0.0040594
Heightened Def Con from 0.00406099 to 0.004061
Heightened Def Con from 0.004061 to 0.004061
Heightened Def Con from 0.0040694 to 0.00406941
Heightened Def Con from 0.00407099 to 0.00407099
Heightened Def Con from 0.004071 to 0.004071
Heightened Def Con from 0.0040794 to 0.00407941
Heightened Def Con from 0.00408098 to 0.00408099
Heightened Def Con from 0.00408099 to 0.004081
Heightened Def Con from 0.00408941 to 0.00408941
Heightened Def Con from 0.00409098 to 0.00409098
Heightened Def Con from 0.00409099 to 0.00409099
Heightened Def Con from 0.00409941 to 0.00409942
Heightened Def Con from 0.00410098 to 0.00410098
Heightened Def Con from 0.00410099 to 0.00410099
Heightened Def Con from 0.00410942 to 0.00410942
Heightened Def Con from 0.00411097 to 0.00411098
Heightened Def Con from 0.00411098 to 0.00411099
Heightened Def Con from 0.00411942 to 0.00411942
Heightened Def Con from 0.00412097 to 0.00412097
Heightened Def Con from 0.00412098 to 0.00412098
Heightened Def Con from 0.00412942 to 0.00412943
Heightened Def Con from 0.00413097 to 0.00413097
Heightened Def Con from 0.00413097 to 0.00413098
Heightened Def Con from 0.00413943 to 0.00413943
Heightened Def Con from 0.00414096 to 0.00414097
Heightened Def Con from 0.00414097 to 0.00414097
Heightened Def Con from 0.00414943 to 0.00414944
Heightened Def Con from 0.00415096 to 0.00415096
Heightened Def Con from 0.00415097 to 0.00415097
Heightened Def Con from 0.00415943 to 0.00415943
Heightened Def Con from 0.00415943 to 0.00415944
Heightened Def Con from 0.00416095 to 0.00416096
Heightened Def Con from 0.00416096 to 0.00416097
Heightened Def Con from 0.00416944 to 0.00416944
Heightened Def Con from 0.00417095 to 0.00417096
Heightened Def Con from 0.00417096 to 0.00417096
Heightened Def Con from 0.00417944 to 0.00417945
Heightened Def Con from 0.00418095 to 0.00418095
Heightened Def Con from 0.00418096 to 0.00418096
Heightened Def Con from 0.00418944 to 0.00418945
Heightened Def Con from 0.00419094 to 0.00419095
Heightened Def Con from 0.00419095 to 0.00419096
Heightened Def Con from 0.00419945 to 0.00419945
Heightened Def Con from 0.00420094 to 0.00420094
Heightened Def Con from 0.00420095 to 0.00420095
Heightened Def Con from 0.00420945 to 0.00420946
Heightened Def Con from 0.00421094 to 0.00421094
Heightened Def Con from 0.00421095 to 0.00421095
Heightened Def Con from 0.00421945 to 0.00421946
Heightened Def Con from 0.00422093 to 0.00422094
Heightened Def Con from 0.00422094 to 0.00422095
Heightened Def Con from 0.00422946 to 0.00422946
Heightened Def Con from 0.00423093 to 0.00423094
Heightened Def Con from 0.00423094 to 0.00423094
Heightened Def Con from 0.00423946 to 0.00423947
Heightened Def Con from 0.00424093 to 0.00424093
Heightened Def Con from 0.00424094 to 0.00424094
Heightened Def Con from 0.00424946 to 0.00424947
Heightened Def Con from 0.00425092 to 0.00425093
Heightened Def Con from 0.00425093 to 0.00425094
Heightened Def Con from 0.00425947 to 0.00425947
Heightened Def Con from 0.00426092 to 0.00426093
Heightened Def Con from 0.00426093 to 0.00426093
Heightened Def Con from 0.00426947 to 0.00426948
Heightened Def Con from 0.00427092 to 0.00427092
Heightened Def Con from 0.00427093 to 0.00427093
Heightened Def Con from 0.00427947 to 0.00427947
Heightened Def Con from 0.00427947 to 0.00427948
Heightened Def Con from 0.00428092 to 0.00428092
Heightened Def Con from 0.00428092 to 0.00428093
Heightened Def Con from 0.00428948 to 0.00428948
Heightened Def Con from 0.00429091 to 0.00429092
Heightened Def Con from 0.00429092 to 0.00429093
Heightened Def Con from 0.00429948 to 0.00429948
Heightened Def Con from 0.00430091 to 0.00430091
Heightened Def Con from 0.00430092 to 0.00430092
Heightened Def Con from 0.00430948 to 0.00430949
Heightened Def Con from 0.00431091 to 0.00431091
Heightened Def Con from 0.00431091 to 0.00431092
Heightened Def Con from 0.00431948 to 0.00431949
Heightened Def Con from 0.0043209 to 0.00432091
Heightened Def Con from 0.00432091 to 0.00432092
Heightened Def Con from 0.00432949 to 0.00432949
Heightened Def Con from 0.0043309 to 0.0043309
Heightened Def Con from 0.00433091 to 0.00433091
Heightened Def Con from 0.00433949 to 0.0043395
Heightened Def Con from 0.0043409 to 0.0043409
Heightened Def Con from 0.00434091 to 0.00434091
Heightened Def Con from 0.00434949 to 0.0043495
Heightened Def Con from 0.0043509 to 0.0043509
Heightened Def Con from 0.0043509 to 0.00435091
Heightened Def Con from 0.00435949 to 0.0043595
Heightened Def Con from 0.00436089 to 0.0043609
Heightened Def Con from 0.0043609 to 0.00436091
Heightened Def Con from 0.0043695 to 0.0043695
Heightened Def Con from 0.00437089 to 0.00437089
Heightened Def Con from 0.0043709 to 0.0043709
Heightened Def Con from 0.0043795 to 0.00437951
Heightened Def Con from 0.00438089 to 0.00438089
Heightened Def Con from 0.0043809 to 0.0043809
Heightened Def Con from 0.0043895 to 0.00438951
Heightened Def Con from 0.00439088 to 0.00439089
Heightened Def Con from 0.00439089 to 0.0043909
Heightened Def Con from 0.00439951 to 0.00439951
Heightened Def Con from 0.00440088 to 0.00440089
Heightened Def Con from 0.00440089 to 0.0044009
Heightened Def Con from 0.00440951 to 0.00440951
Heightened Def Con from 0.00441088 to 0.00441088
Heightened Def Con from 0.00441089 to 0.00441089
Heightened Def Con from 0.00441951 to 0.00441952
Heightened Def Con from 0.00442088 to 0.00442088
Heightened Def Con from 0.00442089 to 0.00442089
Heightened Def Con from 0.00442951 to 0.00442952
Heightened Def Con from 0.00443088 to 0.00443088
Heightened Def Con from 0.00443088 to 0.00443089
Heightened Def Con from 0.00443952 to 0.00443952
Heightened Def Con from 0.00444087 to 0.00444088
Heightened Def Con from 0.00444088 to 0.00444089
Heightened Def Con from 0.00444952 to 0.00444952
Heightened Def Con from 0.00445087 to 0.00445087
Heightened Def Con from 0.00445088 to 0.00445088
Heightened Def Con from 0.00445951 to 0.00445951
Heightened Def Con from 0.00445952 to 0.00445952
Heightened Def Con from 0.00446087 to 0.00446087
Heightened Def Con from 0.00446088 to 0.00446088
Heightened Def Con from 0.00446952 to 0.00446953
Heightened Def Con from 0.00447087 to 0.00447087
Heightened Def Con from 0.00447087 to 0.00447088
Heightened Def Con from 0.00447952 to 0.00447952
Heightened Def Con from 0.00447952 to 0.00447953
Heightened Def Con from 0.00448086 to 0.00448087
Heightened Def Con from 0.00448087 to 0.00448087
Heightened Def Con from 0.00448087 to 0.00448088
Heightened Def Con from 0.00448953 to 0.00448953
Heightened Def Con from 0.00449086 to 0.00449087
Heightened Def Con from 0.00449087 to 0.00449087
Heightened Def Con from 0.00449953 to 0.00449953
Heightened Def Con from 0.00450086 to 0.00450086
Heightened Def Con from 0.00450087 to 0.00450087
Heightened Def Con from 0.00450953 to 0.00450954
Heightened Def Con from 0.00451086 to 0.00451086
Heightened Def Con from 0.00451087 to 0.00451087
Heightened Def Con from 0.00451953 to 0.00451954
Heightened Def Con from 0.00452086 to 0.00452086
Heightened Def Con from 0.00452086 to 0.00452087
Heightened Def Con from 0.00452954 to 0.00452954
Heightened Def Con from 0.00453085 to 0.00453086
Heightened Def Con from 0.00453086 to 0.00453087
Heightened Def Con from 0.00453954 to 0.00453954
Heightened Def Con from 0.00454085 to 0.00454086
Heightened Def Con from 0.00454086 to 0.00454086
Heightened Def Con from 0.00454954 to 0.00454954
Heightened Def Con from 0.00455085 to 0.00455085
Heightened Def Con from 0.00455086 to 0.00455086
Heightened Def Con from 0.00455954 to 0.00455955
Heightened Def Con from 0.00456085 to 0.00456085
Heightened Def Con from 0.00456086 to 0.00456086
Heightened Def Con from 0.00456954 to 0.00456955
Heightened Def Con from 0.00457085 to 0.00457085
Heightened Def Con from 0.00457085 to 0.00457086
Heightened Def Con from 0.00457954 to 0.00457955
Heightened Def Con from 0.00458084 to 0.00458085
Heightened Def Con from 0.00458085 to 0.00458086
Heightened Def Con from 0.00458955 to 0.00458955
Heightened Def Con from 0.00459084 to 0.00459085
Heightened Def Con from 0.00459085 to 0.00459085
Heightened Def Con from 0.00459954 to 0.00459954
Heightened Def Con from 0.00459955 to 0.00459955
Heightened Def Con from 0.00460084 to 0.00460084
Heightened Def Con from 0.00460085 to 0.00460085
Heightened Def Con from 0.00460955 to 0.00460956
Heightened Def Con from 0.00461084 to 0.00461084
Heightened Def Con from 0.00461085 to 0.00461085
Heightened Def Con from 0.00461955 to 0.00461956
Heightened Def Con from 0.00462084 to 0.00462084
Heightened Def Con from 0.00462085 to 0.00462085
Heightened Def Con from 0.00462955 to 0.00462956
Heightened Def Con from 0.00463084 to 0.00463084
Heightened Def Con from 0.00463084 to 0.00463085
Heightened Def Con from 0.00463955 to 0.00463956
Heightened Def Con from 0.00464083 to 0.00464084
Heightened Def Con from 0.00464084 to 0.00464085
Heightened Def Con from 0.00464956 to 0.00464956
Heightened Def Con from 0.00465083 to 0.00465084
Heightened Def Con from 0.00465084 to 0.00465085
Heightened Def Con from 0.00465956 to 0.00465956
Heightened Def Con from 0.00466083 to 0.00466084
Heightened Def Con from 0.00466084 to 0.00466084
Heightened Def Con from 0.00466956 to 0.00466956
Heightened Def Con from 0.00467083 to 0.00467083
Heightened Def Con from 0.00467084 to 0.00467084
Heightened Def Con from 0.00467956 to 0.00467957
Heightened Def Con from 0.00468083 to 0.00468083
Heightened Def Con from 0.00468084 to 0.00468084
Heightened Def Con from 0.00468956 to 0.00468957
Heightened Def Con from 0.00469083 to 0.00469083
Heightened Def Con from 0.00469084 to 0.00469084
Heightened Def Con from 0.00469956 to 0.00469957
Heightened Def Con from 0.00470083 to 0.00470083
Heightened Def Con from 0.00470083 to 0.00470084
Heightened Def Con from 0.00470957 to 0.00470957
Heightened Def Con from 0.00471082 to 0.00471083
Heightened Def Con from 0.00471083 to 0.00471084
Heightened Def Con from 0.00471956 to 0.00471957
Heightened Def Con from 0.00472082 to 0.00472083
Heightened Def Con from 0.00472083 to 0.00472084
Heightened Def Con from 0.00472957 to 0.00472957
Heightened Def Con from 0.00473082 to 0.00473083
Heightened Def Con from 0.00473083 to 0.00473083
Heightened Def Con from 0.00473957 to 0.00473957
Heightened Def Con from 0.00474082 to 0.00474083
Heightened Def Con from 0.00474083 to 0.00474083
Heightened Def Con from 0.00474957 to 0.00474957
Heightened Def Con from 0.00475082 to 0.00475082
Heightened Def Con from 0.00475083 to 0.00475083
Heightened Def Con from 0.00475957 to 0.00475958
Heightened Def Con from 0.00476082 to 0.00476082
Heightened Def Con from 0.00476083 to 0.00476083
Heightened Def Con from 0.00476957 to 0.00476958
Heightened Def Con from 0.00477082 to 0.00477082
Heightened Def Con from 0.00477083 to 0.00477083
Heightened Def Con from 0.00477957 to 0.00477958
Heightened Def Con from 0.00478082 to 0.00478082
Heightened Def Con from 0.00478083 to 0.00478083
Heightened Def Con from 0.00478083 to 0.00478083
Heightened Def Con from 0.00478957 to 0.00478958
Heightened Def Con from 0.00479082 to 0.00479082
Heightened Def Con from 0.00479082 to 0.00479083
Heightened Def Con from 0.00479957 to 0.00479958
Heightened Def Con from 0.00480082 to 0.00480082
Heightened Def Con from 0.00480082 to 0.00480083
Heightened Def Con from 0.00480958 to 0.00480958
Heightened Def Con from 0.00481081 to 0.00481082
Heightened Def Con from 0.00481082 to 0.00481083
Heightened Def Con from 0.00481957 to 0.00481957
Heightened Def Con from 0.00481957 to 0.00481958
Heightened Def Con from 0.00482081 to 0.00482082
Heightened Def Con from 0.00482082 to 0.00482083
Heightened Def Con from 0.00482958 to 0.00482958
Heightened Def Con from 0.00483081 to 0.00483082
Heightened Def Con from 0.00483082 to 0.00483083
Heightened Def Con from 0.00483958 to 0.00483958
Heightened Def Con from 0.00484081 to 0.00484082
Heightened Def Con from 0.00484082 to 0.00484083
Heightened Def Con from 0.00484958 to 0.00484958
Heightened Def Con from 0.00485081 to 0.00485082
Heightened Def Con from 0.00485082 to 0.00485082
Heightened Def Con from 0.00485958 to 0.00485958
Heightened Def Con from 0.00486081 to 0.00486082
Heightened Def Con from 0.00486082 to 0.00486082
Heightened Def Con from 0.00486958 to 0.00486958
Heightened Def Con from 0.00487081 to 0.00487081
Heightened Def Con from 0.00487082 to 0.00487082
Heightened Def Con from 0.00487958 to 0.00487958
Heightened Def Con from 0.00488081 to 0.00488082
Heightened Def Con from 0.00488082 to 0.00488082
Heightened Def Con from 0.00488958 to 0.00488959
Heightened Def Con from 0.00489081 to 0.00489081
Heightened Def Con from 0.00489082 to 0.00489082
Heightened Def Con from 0.00489958 to 0.00489958
Heightened Def Con from 0.00490081 to 0.00490081
Heightened Def Con from 0.00490082 to 0.00490082
Heightened Def Con from 0.00490958 to 0.00490959
Heightened Def Con from 0.00491081 to 0.00491081
Heightened Def Con from 0.00491082 to 0.00491082
Heightened Def Con from 0.00491958 to 0.00491959
Heightened Def Con from 0.00492081 to 0.00492081
Heightened Def Con from 0.00492082 to 0.00492082
Heightened Def Con from 0.00492958 to 0.00492959
Heightened Def Con from 0.00493081 to 0.00493081
Heightened Def Con from 0.00493082 to 0.00493082
Heightened Def Con from 0.00493958 to 0.00493959
Heightened Def Con from 0.00494081 to 0.00494081
Heightened Def Con from 0.00494082 to 0.00494082
Heightened Def Con from 0.00494958 to 0.00494959
Heightened Def Con from 0.00495081 to 0.00495081
Heightened Def Con from 0.00495082 to 0.00495082
Heightened Def Con from 0.00495958 to 0.00495959
Heightened Def Con from 0.00496081 to 0.00496081
Heightened Def Con from 0.00496082 to 0.00496082
Heightened Def Con from 0.00496958 to 0.00496959
Heightened Def Con from 0.00497081 to 0.00497081
Heightened Def Con from 0.00497082 to 0.00497082
Heightened Def Con from 0.00497958 to 0.00497959
Heightened Def Con from 0.00498081 to 0.00498081
Heightened Def Con from 0.00498082 to 0.00498082
Heightened Def Con from 0.00498958 to 0.00498959
Heightened Def Con from 0.00499081 to 0.00499081
Heightened Def Con from 0.00499082 to 0.00499082
Heightened Def Con from 0.00499958 to 0.00499959
Heightened Def Con from 0.00500081 to 0.00500081
Heightened Def Con from 0.00500082 to 0.00500082
Heightened Def Con from 0.00500958 to 0.00500959
Heightened Def Con from 0.00501081 to 0.00501081
Heightened Def Con from 0.00501082 to 0.00501082
Heightened Def Con from 0.00501957 to 0.00501958
[...]
Heightened Def Con from 0.0194844 to 0.0194844
Heightened Def Con from 0.019486 to 0.019486
Heightened Def Con from 0.0194944 to 0.0194944
Heightened Def Con from 0.0194944 to 0.0194944
Heightened Def Con from 0.019496 to 0.019496
Heightened Def Con from 0.0195044 to 0.0195044
Heightened Def Con from 0.0195044 to 0.0195044
Heightened Def Con from 0.019506 to 0.019506
Heightened Def Con from 0.0195144 to 0.0195144
Heightened Def Con from 0.0195144 to 0.0195144
Heightened Def Con from 0.019516 to 0.019516
Heightened Def Con from 0.0195244 to 0.0195244
Heightened Def Con from 0.0195245 to 0.0195245
Heightened Def Con from 0.0195259 to 0.0195259
Heightened Def Con from 0.0195345 to 0.0195345
Heightened Def Con from 0.0195345 to 0.0195345
Heightened Def Con from 0.0195359 to 0.0195359
Heightened Def Con from 0.0195445 to 0.0195445
Heightened Def Con from 0.0195445 to 0.0195445
Heightened Def Con from 0.0195459 to 0.0195459
Heightened Def Con from 0.0195545 to 0.0195545
Heightened Def Con from 0.0195545 to 0.0195545
Heightened Def Con from 0.0195559 to 0.0195559
Heightened Def Con from 0.0195645 to 0.0195645
Heightened Def Con from 0.0195645 to 0.0195645
Heightened Def Con from 0.0195659 to 0.0195659
Heightened Def Con from 0.0195745 to 0.0195745
Heightened Def Con from 0.0195745 to 0.0195745
Heightened Def Con from 0.0195759 to 0.0195759
Heightened Def Con from 0.0195845 to 0.0195845
Heightened Def Con from 0.0195845 to 0.0195845
Heightened Def Con from 0.0195859 to 0.0195859
Heightened Def Con from 0.0195945 to 0.0195945
Heightened Def Con from 0.0195945 to 0.0195945
Heightened Def Con from 0.0195958 to 0.0195959
Heightened Def Con from 0.0196046 to 0.0196046
Heightened Def Con from 0.0196046 to 0.0196046
Heightened Def Con from 0.0196058 to 0.0196058
Heightened Def Con from 0.0196146 to 0.0196146
Heightened Def Con from 0.0196146 to 0.0196146
Heightened Def Con from 0.0196158 to 0.0196158
Heightened Def Con from 0.0196246 to 0.0196246
Heightened Def Con from 0.0196246 to 0.0196246
Heightened Def Con from 0.0196246 to 0.0196246
Heightened Def Con from 0.0196258 to 0.0196258
Heightened Def Con from 0.0196346 to 0.0196346
Heightened Def Con from 0.0196346 to 0.0196346
Heightened Def Con from 0.0196358 to 0.0196358
Heightened Def Con from 0.0196446 to 0.0196446
Heightened Def Con from 0.0196446 to 0.0196446
Heightened Def Con from 0.0196458 to 0.0196458
Heightened Def Con from 0.0196546 to 0.0196546
Heightened Def Con from 0.0196546 to 0.0196546
Heightened Def Con from 0.0196558 to 0.0196558
Heightened Def Con from 0.0196646 to 0.0196646
Heightened Def Con from 0.0196646 to 0.0196646
Heightened Def Con from 0.0196658 to 0.0196658
Heightened Def Con from 0.0196746 to 0.0196746
Heightened Def Con from 0.0196747 to 0.0196747
Heightened Def Con from 0.0196757 to 0.0196757
Heightened Def Con from 0.0196847 to 0.0196847
Heightened Def Con from 0.0196847 to 0.0196847
Heightened Def Con from 0.0196857 to 0.0196857
Heightened Def Con from 0.0196947 to 0.0196947
Heightened Def Con from 0.0196947 to 0.0196947
Heightened Def Con from 0.0196957 to 0.0196957
Heightened Def Con from 0.0197047 to 0.0197047
Heightened Def Con from 0.0197047 to 0.0197047
Heightened Def Con from 0.0197057 to 0.0197057
Heightened Def Con from 0.0197147 to 0.0197147
Heightened Def Con from 0.0197147 to 0.0197147
Heightened Def Con from 0.0197157 to 0.0197157
Heightened Def Con from 0.0197247 to 0.0197247
Heightened Def Con from 0.0197247 to 0.0197247
Heightened Def Con from 0.0197257 to 0.0197257
Heightened Def Con from 0.0197257 to 0.0197257
Heightened Def Con from 0.0197347 to 0.0197347
Heightened Def Con from 0.0197347 to 0.0197347
Heightened Def Con from 0.0197447 to 0.0197447
Heightened Def Con from 0.0197447 to 0.0197448
Heightened Def Con from 0.0197548 to 0.0197548
Heightened Def Con from 0.0197548 to 0.0197548
Heightened Def Con from 0.0197648 to 0.0197648
Heightened Def Con from 0.0197648 to 0.0197648
Heightened Def Con from 0.0197748 to 0.0197748
Heightened Def Con from 0.0197748 to 0.0197748
Heightened Def Con from 0.0197848 to 0.0197848
Heightened Def Con from 0.0197848 to 0.0197848
Heightened Def Con from 0.0197948 to 0.0197948
Heightened Def Con from 0.0197948 to 0.0197948
Heightened Def Con from 0.0198048 to 0.0198048
Heightened Def Con from 0.0198048 to 0.0198048
Heightened Def Con from 0.0198148 to 0.0198148
Heightened Def Con from 0.0198148 to 0.0198148
Heightened Def Con from 0.0198248 to 0.0198249
Heightened Def Con from 0.0198249 to 0.0198249
Heightened Def Con from 0.0198349 to 0.0198349
Heightened Def Con from 0.0198349 to 0.0198349
Heightened Def Con from 0.0198449 to 0.0198449
Heightened Def Con from 0.0198449 to 0.0198449
Heightened Def Con from 0.0198549 to 0.0198549
Heightened Def Con from 0.0198549 to 0.0198549
Heightened Def Con from 0.0198649 to 0.0198649
Heightened Def Con from 0.0198649 to 0.0198649
Heightened Def Con from 0.0198749 to 0.0198749
Heightened Def Con from 0.0198749 to 0.0198749
Heightened Def Con from 0.0198849 to 0.0198849
Heightened Def Con from 0.0198849 to 0.0198849
Heightened Def Con from 0.0198949 to 0.0198949
Heightened Def Con from 0.0198949 to 0.019895
Heightened Def Con from 0.019905 to 0.019905
Heightened Def Con from 0.019905 to 0.019905
Heightened Def Con from 0.019915 to 0.019915
Heightened Def Con from 0.019915 to 0.019915
Heightened Def Con from 0.019925 to 0.019925
Heightened Def Con from 0.019925 to 0.019925
Heightened Def Con from 0.019925 to 0.019925
Heightened Def Con from 0.019935 to 0.019935
Heightened Def Con from 0.019935 to 0.019935
Heightened Def Con from 0.019945 to 0.019945
Heightened Def Con from 0.019945 to 0.019945
Heightened Def Con from 0.019955 to 0.019955
Heightened Def Con from 0.019955 to 0.019955
Heightened Def Con from 0.0199551 to 0.0199552
Heightened Def Con from 0.019965 to 0.019965
Heightened Def Con from 0.0199651 to 0.0199651
Heightened Def Con from 0.019975 to 0.0199751
Heightened Def Con from 0.0199751 to 0.0199751
Heightened Def Con from 0.0199751 to 0.0199751
Heightened Def Con from 0.0199751 to 0.0199751
Heightened Def Con from 0.0199851 to 0.0199851
Heightened Def Con from 0.0199851 to 0.0199851
Heightened Def Con from 0.0199851 to 0.0199851
Heightened Def Con from 0.0199951 to 0.0199951
Heightened Def Con from 0.0199951 to 0.0199951
Heightened Def Con from 0.0199951 to 0.0199951
Heightened Def Con from 0.0200051 to 0.0200051
Heightened Def Con from 0.0200051 to 0.0200051
Heightened Def Con from 0.0200051 to 0.0200051
Heightened Def Con from 0.0200051 to 0.0200051
Heightened Def Con from 0.0200151 to 0.0200151
Heightened Def Con from 0.0200151 to 0.0200151
Heightened Def Con from 0.0200151 to 0.0200151
Heightened Def Con from 0.020025 to 0.0200251
Heightened Def Con from 0.0200251 to 0.0200251
Heightened Def Con from 0.0200251 to 0.0200251
Heightened Def Con from 0.020035 to 0.020035
Heightened Def Con from 0.020035 to 0.020035
Heightened Def Con from 0.020045 to 0.020045
Heightened Def Con from 0.020045 to 0.020045
Heightened Def Con from 0.020055 to 0.020055
Heightened Def Con from 0.020055 to 0.020055
Heightened Def Con from 0.020065 to 0.020065
Heightened Def Con from 0.020065 to 0.020065
Heightened Def Con from 0.020075 to 0.020075
Heightened Def Con from 0.020075 to 0.020075
Heightened Def Con from 0.020085 to 0.020085
Heightened Def Con from 0.020085 to 0.020085
Heightened Def Con from 0.020095 to 0.020095
Heightened Def Con from 0.020095 to 0.020095
Heightened Def Con from 0.0201049 to 0.0201049
Heightened Def Con from 0.0201049 to 0.020105
Heightened Def Con from 0.0201149 to 0.0201149
Heightened Def Con from 0.0201149 to 0.0201149
Heightened Def Con from 0.0201249 to 0.0201249
Heightened Def Con from 0.0201249 to 0.0201249
Heightened Def Con from 0.0201349 to 0.0201349
Heightened Def Con from 0.0201349 to 0.0201349
Heightened Def Con from 0.0201449 to 0.0201449
Heightened Def Con from 0.0201449 to 0.0201449
Heightened Def Con from 0.0201549 to 0.0201549
Heightened Def Con from 0.0201549 to 0.0201549
Heightened Def Con from 0.0201649 to 0.0201649
Heightened Def Con from 0.0201649 to 0.0201649
Heightened Def Con from 0.0201748 to 0.0201749
Heightened Def Con from 0.0201749 to 0.0201749
Heightened Def Con from 0.0201848 to 0.0201848
Heightened Def Con from 0.0201848 to 0.0201848
Heightened Def Con from 0.0201948 to 0.0201948
Heightened Def Con from 0.0201948 to 0.0201948
Heightened Def Con from 0.0202048 to 0.0202048
Heightened Def Con from 0.0202048 to 0.0202048
Heightened Def Con from 0.0202148 to 0.0202148
Heightened Def Con from 0.0202148 to 0.0202148
Heightened Def Con from 0.0202248 to 0.0202248
Heightened Def Con from 0.0202248 to 0.0202248
Heightened Def Con from 0.0202348 to 0.0202348
Heightened Def Con from 0.0202348 to 0.0202348
Heightened Def Con from 0.0202448 to 0.0202448
Heightened Def Con from 0.0202448 to 0.0202448
Heightened Def Con from 0.0202547 to 0.0202547
Heightened Def Con from 0.0202547 to 0.0202548
Heightened Def Con from 0.0202647 to 0.0202647
Heightened Def Con from 0.0202647 to 0.0202647
Heightened Def Con from 0.0202657 to 0.0202657
Heightened Def Con from 0.0202657 to 0.0202657
Heightened Def Con from 0.0202747 to 0.0202747
Heightened Def Con from 0.0202747 to 0.0202747
Heightened Def Con from 0.0202757 to 0.0202757
Heightened Def Con from 0.0202847 to 0.0202847
Heightened Def Con from 0.0202847 to 0.0202847
Heightened Def Con from 0.0202857 to 0.0202857
Heightened Def Con from 0.0202947 to 0.0202947
Heightened Def Con from 0.0202947 to 0.0202947
Heightened Def Con from 0.0202957 to 0.0202957
Heightened Def Con from 0.0203047 to 0.0203047
Heightened Def Con from 0.0203047 to 0.0203047
Heightened Def Con from 0.0203057 to 0.0203057
Heightened Def Con from 0.0203147 to 0.0203147
Heightened Def Con from 0.0203147 to 0.0203147
Heightened Def Con from 0.0203157 to 0.0203157
Heightened Def Con from 0.0203246 to 0.0203247
Heightened Def Con from 0.0203247 to 0.0203247
Heightened Def Con from 0.0203257 to 0.0203258
Heightened Def Con from 0.0203346 to 0.0203346
Heightened Def Con from 0.0203346 to 0.0203346
Heightened Def Con from 0.0203358 to 0.0203358
Heightened Def Con from 0.0203446 to 0.0203446
Heightened Def Con from 0.0203446 to 0.0203446
Heightened Def Con from 0.0203458 to 0.0203458
Heightened Def Con from 0.0203546 to 0.0203546
Heightened Def Con from 0.0203546 to 0.0203546
Heightened Def Con from 0.0203558 to 0.0203558
Heightened Def Con from 0.0203646 to 0.0203646
Heightened Def Con from 0.0203646 to 0.0203646
Heightened Def Con from 0.0203658 to 0.0203658
Heightened Def Con from 0.0203746 to 0.0203746
Heightened Def Con from 0.0203746 to 0.0203746
Heightened Def Con from 0.0203758 to 0.0203758
Heightened Def Con from 0.0203846 to 0.0203846
Heightened Def Con from 0.0203846 to 0.0203846
Heightened Def Con from 0.0203846 to 0.0203846
Heightened Def Con from 0.0203858 to 0.0203858
Heightened Def Con from 0.0203946 to 0.0203946
Heightened Def Con from 0.0203946 to 0.0203946
Heightened Def Con from 0.0203958 to 0.0203958
Heightened Def Con from 0.0204045 to 0.0204045
Heightened Def Con from 0.0204045 to 0.0204045
Heightened Def Con from 0.0204045 to 0.0204046
Heightened Def Con from 0.0204059 to 0.0204059
Heightened Def Con from 0.0204145 to 0.0204145
Heightened Def Con from 0.0204145 to 0.0204145
Heightened Def Con from 0.0204159 to 0.0204159
Heightened Def Con from 0.0204245 to 0.0204245
Heightened Def Con from 0.0204245 to 0.0204245
Heightened Def Con from 0.0204259 to 0.0204259
Heightened Def Con from 0.0204345 to 0.0204345
Heightened Def Con from 0.0204345 to 0.0204345
Heightened Def Con from 0.0204359 to 0.0204359
Heightened Def Con from 0.0204445 to 0.0204445
Heightened Def Con from 0.0204445 to 0.0204445
Heightened Def Con from 0.0204459 to 0.0204459
Heightened Def Con from 0.0204545 to 0.0204545
Heightened Def Con from 0.0204545 to 0.0204545
Heightened Def Con from 0.0204559 to 0.0204559
Heightened Def Con from 0.0204645 to 0.0204645
Heightened Def Con from 0.0204645 to 0.0204645
Heightened Def Con from 0.0204659 to 0.0204659
Heightened Def Con from 0.0204744 to 0.0204745
Heightened Def Con from 0.0204745 to 0.0204745
Heightened Def Con from 0.0204759 to 0.0204759
Heightened Def Con from 0.0204844 to 0.0204844
Heightened Def Con from 0.0204844 to 0.0204844
Heightened Def Con from 0.020486 to 0.020486
Heightened Def Con from 0.0204944 to 0.0204944
Heightened Def Con from 0.0204944 to 0.0204944
Heightened Def Con from 0.020496 to 0.020496
Heightened Def Con from 0.0205044 to 0.0205044
Heightened Def Con from 0.0205044 to 0.0205044
Heightened Def Con from 0.020506 to 0.020506
Heightened Def Con from 0.0205144 to 0.0205144
Heightened Def Con from 0.0205144 to 0.0205144
Heightened Def Con from 0.020516 to 0.020516
Heightened Def Con from 0.0205244 to 0.0205244
Heightened Def Con from 0.0205244 to 0.0205244
Heightened Def Con from 0.020526 to 0.020526
Heightened Def Con from 0.0205344 to 0.0205344
Heightened Def Con from 0.0205344 to 0.0205344
Heightened Def Con from 0.020536 to 0.020536
Heightened Def Con from 0.0205444 to 0.0205444
Heightened Def Con from 0.0205444 to 0.0205444
Heightened Def Con from 0.020546 to 0.020546
Heightened Def Con from 0.0205543 to 0.0205543
Heightened Def Con from 0.0205543 to 0.0205544
Heightened Def Con from 0.020556 to 0.0205561
Heightened Def Con from 0.0205643 to 0.0205643
Heightened Def Con from 0.0205643 to 0.0205643
Heightened Def Con from 0.0205661 to 0.0205661
Heightened Def Con from 0.0205743 to 0.0205743
Heightened Def Con from 0.0205743 to 0.0205743
Heightened Def Con from 0.0205761 to 0.0205761
Heightened Def Con from 0.0205843 to 0.0205843
Heightened Def Con from 0.0205843 to 0.0205843
Heightened Def Con from 0.0205861 to 0.0205861
Heightened Def Con from 0.0205943 to 0.0205943
Heightened Def Con from 0.0205943 to 0.0205943
Heightened Def Con from 0.0205961 to 0.0205961
Heightened Def Con from 0.0206043 to 0.0206043
Heightened Def Con from 0.0206043 to 0.0206043
Heightened Def Con from 0.0206061 to 0.0206061
Heightened Def Con from 0.0206143 to 0.0206143
Heightened Def Con from 0.0206143 to 0.0206143
Heightened Def Con from 0.0206161 to 0.0206161
Heightened Def Con from 0.0206242 to 0.0206243
Heightened Def Con from 0.0206261 to 0.0206261
Heightened Def Con from 0.0206342 to 0.0206342
Heightened Def Con from 0.0206342 to 0.0206342
Heightened Def Con from 0.0206362 to 0.0206362
Heightened Def Con from 0.0206442 to 0.0206442
Heightened Def Con from 0.0206442 to 0.0206442
Heightened Def Con from 0.0206462 to 0.0206462
Heightened Def Con from 0.0206542 to 0.0206542
Heightened Def Con from 0.0206542 to 0.0206542
Heightened Def Con from 0.0206562 to 0.0206562
Heightened Def Con from 0.0206642 to 0.0206642
Heightened Def Con from 0.0206642 to 0.0206642
Heightened Def Con from 0.0206662 to 0.0206662
Heightened Def Con from 0.0206742 to 0.0206742
Heightened Def Con from 0.0206742 to 0.0206742
Heightened Def Con from 0.0206762 to 0.0206762
Heightened Def Con from 0.0206842 to 0.0206842
Heightened Def Con from 0.0206842 to 0.0206842
Heightened Def Con from 0.0206862 to 0.0206862
Heightened Def Con from 0.0206942 to 0.0206942
Heightened Def Con from 0.0206942 to 0.0206942
Heightened Def Con from 0.0206962 to 0.0206962
Heightened Def Con from 0.0207041 to 0.0207041
Heightened Def Con from 0.0207042 to 0.0207042
Heightened Def Con from 0.0207062 to 0.0207063
Heightened Def Con from 0.0207141 to 0.0207141
Heightened Def Con from 0.0207141 to 0.0207141
Heightened Def Con from 0.0207163 to 0.0207163
Heightened Def Con from 0.0207241 to 0.0207241
Heightened Def Con from 0.0207241 to 0.0207241
Heightened Def Con from 0.0207263 to 0.0207263
Heightened Def Con from 0.0207341 to 0.0207341
Heightened Def Con from 0.0207341 to 0.0207341
Heightened Def Con from 0.0207363 to 0.0207363
Heightened Def Con from 0.0207441 to 0.0207441
Heightened Def Con from 0.0207441 to 0.0207441
Heightened Def Con from 0.0207463 to 0.0207463
Heightened Def Con from 0.0207541 to 0.0207541
Heightened Def Con from 0.0207541 to 0.0207541
Heightened Def Con from 0.0207563 to 0.0207563
Heightened Def Con from 0.0207641 to 0.0207641
Heightened Def Con from 0.0207641 to 0.0207641
Heightened Def Con from 0.0207663 to 0.0207663
Heightened Def Con from 0.0207741 to 0.0207741
Heightened Def Con from 0.0207741 to 0.0207741
Heightened Def Con from 0.0207763 to 0.0207763
Heightened Def Con from 0.020784 to 0.020784
Heightened Def Con from 0.020784 to 0.0207841
Heightened Def Con from 0.0207864 to 0.0207864
Heightened Def Con from 0.020794 to 0.020794
Heightened Def Con from 0.020794 to 0.020794
Heightened Def Con from 0.0207964 to 0.0207964
Heightened Def Con from 0.020804 to 0.020804
Heightened Def Con from 0.020804 to 0.020804
Heightened Def Con from 0.020804 to 0.020804
Heightened Def Con from 0.0208064 to 0.0208064
Heightened Def Con from 0.020814 to 0.020814
Heightened Def Con from 0.020814 to 0.020814
Heightened Def Con from 0.0208164 to 0.0208164
Heightened Def Con from 0.020824 to 0.020824
Heightened Def Con from 0.020824 to 0.020824
Heightened Def Con from 0.0208264 to 0.0208264
Heightened Def Con from 0.020834 to 0.020834
Heightened Def Con from 0.020834 to 0.020834
Heightened Def Con from 0.0208364 to 0.0208364
Heightened Def Con from 0.020844 to 0.020844
Heightened Def Con from 0.020844 to 0.020844
Heightened Def Con from 0.0208464 to 0.0208464
Heightened Def Con from 0.0208539 to 0.020854
Heightened Def Con from 0.020854 to 0.020854
Heightened Def Con from 0.0208564 to 0.0208564
Heightened Def Con from 0.0208639 to 0.0208639
Heightened Def Con from 0.0208639 to 0.0208639
Heightened Def Con from 0.0208665 to 0.0208665
Heightened Def Con from 0.0208739 to 0.0208739
Heightened Def Con from 0.0208739 to 0.0208739
Heightened Def Con from 0.0208765 to 0.0208765
Heightened Def Con from 0.0208839 to 0.0208839
Heightened Def Con from 0.0208839 to 0.0208839
Heightened Def Con from 0.0208865 to 0.0208865
Heightened Def Con from 0.0208939 to 0.0208939
Heightened Def Con from 0.0208939 to 0.0208939
Heightened Def Con from 0.0208965 to 0.0208965
Heightened Def Con from 0.0209039 to 0.0209039
Heightened Def Con from 0.0209039 to 0.0209039
Heightened Def Con from 0.0209065 to 0.0209065
Heightened Def Con from 0.0209139 to 0.0209139
Heightened Def Con from 0.0209139 to 0.0209139
Heightened Def Con from 0.0209165 to 0.0209165
Heightened Def Con from 0.0209239 to 0.0209239
Heightened Def Con from 0.0209239 to 0.0209239
Heightened Def Con from 0.0209265 to 0.0209265
Heightened Def Con from 0.0209338 to 0.0209338
Heightened Def Con from 0.0209339 to 0.0209339
Heightened Def Con from 0.0209365 to 0.0209365
Heightened Def Con from 0.0209365 to 0.0209366
Heightened Def Con from 0.0209438 to 0.0209438
Heightened Def Con from 0.0209438 to 0.0209438
Heightened Def Con from 0.0209466 to 0.0209466
Heightened Def Con from 0.0209538 to 0.0209538
Heightened Def Con from 0.0209538 to 0.0209538
Heightened Def Con from 0.0209566 to 0.0209566
Heightened Def Con from 0.0209638 to 0.0209638
Heightened Def Con from 0.0209638 to 0.0209638
Heightened Def Con from 0.0209666 to 0.0209666
Heightened Def Con from 0.0209738 to 0.0209738
Heightened Def Con from 0.0209738 to 0.0209738
Heightened Def Con from 0.0209766 to 0.0209766
Heightened Def Con from 0.0209838 to 0.0209838
Heightened Def Con from 0.0209838 to 0.0209838
Heightened Def Con from 0.0209866 to 0.0209866
Heightened Def Con from 0.0209938 to 0.0209938
Heightened Def Con from 0.0209938 to 0.0209938
Heightened Def Con from 0.0209966 to 0.0209966

Date: Mon Mar 07 19:49:45 2022
Total elapsed time: 2208.645 seconds.

tnom = 27
temp = 27
method = modified trap
totiter = 33052011
traniter = 33051948
tranpoints = 12457867
accept = 8946458
rejected = 3518139
matrix size = 121
fillins = 186
solver = Alternate
Thread vector: 41.7/30.1[3] 12.0/7.6[3] 4.9/2.7[3] 1.4/1.8[1]  2592/500
Matrix Compiler1: 22.67 KB object code size  6.4/5.2/[3.0]
Matrix Compiler2: 15.04 KB object code size  2.1/3.2/[1.1]

